<?xml version="1.0"?>

<!-- generated on 04/13/11 15:26:39 by SUMO duarouter Version 0.12.3
<?xml version="1.0" encoding="iso-8859-1"?>

<configuration xmlns:xsi="http://www.w3.org/2001/XMLSchema-instance" xsi:noNamespaceSchemaLocation="http://sumo.sf.net/xsd/duarouterConfiguration.xsd">

    <input>
        <net-file value="manhattan.net.xml"/>
        <flow-definition value="trips.trips.xml"/>
    </input>

    <output>
        <output-file value="manhattan.rou.xml"/>
    </output>

    <processing>
        <randomize-flows value="true"/>
    </processing>

</configuration>
-->

<routes>
    <vehicle id="t62_0" type="type" depart="0.00">
        <route edges="E2F2 F2E2 E2E3 E3E4 E4E5 E5E6 E6D6"/>
    </vehicle>
    <vehicle id="t70_0" type="type" depart="0.00">
        <route edges="F5G5 G5G4 G4G3"/>
    </vehicle>
    <vehicle id="t85_0" type="type" depart="1.00">
        <route edges="F6F5 F5E5 E5E4 E4D4 D4D3 D3D2"/>
    </vehicle>
    <vehicle id="t58_0" type="type" depart="2.00">
        <route edges="G2H2 H2H3 H3H4 H4G4 G4F4 F4E4 E4E5 E5E6 E6E7 E7E8 E8D8 D8C8 C8B8"/>
    </vehicle>
    <vehicle id="t48_0" type="type" depart="3.00">
        <route edges="G1G2 G2F2 F2E2 E2E1 E1D1 D1C1 C1C0"/>
    </vehicle>
    <vehicle id="t80_0" type="type" depart="3.00">
        <route edges="E5D5 D5D4 D4E4 E4F4 F4G4 G4H4 H4I4 I4I3"/>
    </vehicle>
    <vehicle id="t42_0" type="type" depart="4.00">
        <route edges="A6A7 A7B7 B7C7 C7D7 D7D6"/>
    </vehicle>
    <vehicle id="t54_0" type="type" depart="4.00">
        <route edges="A0B0 B0C0 C0D0 D0E0 E0E1 E1E2 E2E3 E3E4 E4F4 F4G4 G4H4 H4H5 H5H6 H6H7"/>
    </vehicle>
    <vehicle id="t41_0" type="type" depart="5.00">
        <route edges="I1I2 I2I1 I1H1 H1H0"/>
    </vehicle>
    <vehicle id="t62_1" type="type" depart="6.00">
        <route edges="E2F2 F2E2 E2E3 E3E4 E4E5 E5E6 E6D6"/>
    </vehicle>
    <vehicle id="t28_0" type="type" depart="7.00">
        <route edges="B2C2 C2D2 D2E2 E2F2 F2F1"/>
    </vehicle>
    <vehicle id="t45_0" type="type" depart="7.00">
        <route edges="A1A0 A0A1 A1A2 A2A3 A3A4 A4B4 B4C4 C4D4 D4E4 E4E5 E5E6 E6F6 F6E6"/>
    </vehicle>
    <vehicle id="t9_0" type="type" depart="7.00">
        <route edges="F0G0 G0F0 F0F1"/>
    </vehicle>
    <vehicle id="t3_0" type="type" depart="9.00">
        <route edges="G7G8 G8F8 F8E8"/>
    </vehicle>
    <vehicle id="t73_0" type="type" depart="9.00">
        <route edges="A7A6 A6A5 A5A4 A4A3 A3A2 A2A1 A1A0"/>
    </vehicle>
    <vehicle id="t26_0" type="type" depart="10.00">
        <route edges="E5E6 E6E7 E7E8 E8D8 D8D7"/>
    </vehicle>
    <vehicle id="t27_0" type="type" depart="12.00">
        <route edges="C6B6 B6B7 B7B8 B8C8 C8D8 D8D7"/>
    </vehicle>
    <vehicle id="t2_0" type="type" depart="12.00">
        <route edges="G1H1 H1G1 G1F1 F1E1 E1E2 E2D2 D2C2 C2C3"/>
    </vehicle>
    <vehicle id="t19_0" type="type" depart="13.00">
        <route edges="C1C0 C0D0 D0E0 E0E1 E1F1 F1E1"/>
    </vehicle>
    <vehicle id="t39_0" type="type" depart="13.00">
        <route edges="F6F7 F7F6 F6F5 F5F4 F4G4 G4H4 H4I4 I4I3 I3I2 I2H2"/>
    </vehicle>
    <vehicle id="t68_0" type="type" depart="13.00">
        <route edges="E7E8 E8E7 E7E6 E6E5 E5E4 E4E3 E3E2 E2D2 D2C2"/>
    </vehicle>
    <vehicle id="t88_0" type="type" depart="14.00">
        <route edges="E3E2 E2E3 E3E4 E4E5 E5E6 E6E7 E7E8 E8D8 D8C8 C8D8"/>
    </vehicle>
    <vehicle id="t6_0" type="type" depart="15.00">
        <route edges="I4H4 H4G4 G4F4 F4F3 F3G3"/>
    </vehicle>
    <vehicle id="t84_0" type="type" depart="16.00">
        <route edges="B4C4 C4D4 D4E4 E4E3 E3E2 E2E1 E1F1 F1G1 G1G2"/>
    </vehicle>
    <vehicle id="t53_0" type="type" depart="17.00">
        <route edges="F1E1 E1E2 E2E3 E3F3 F3E3"/>
    </vehicle>
    <vehicle id="t10_0" type="type" depart="18.00">
        <route edges="E1E0 E0D0 D0C0 C0B0 B0A0 A0A1 A1A2"/>
    </vehicle>
    <vehicle id="t13_0" type="type" depart="18.00">
        <route edges="G3H3 H3H2 H2H1 H1H0 H0G0 G0G1"/>
    </vehicle>
    <vehicle id="t27_1" type="type" depart="18.00">
        <route edges="C6B6 B6B7 B7B8 B8C8 C8D8 D8D7"/>
    </vehicle>
    <vehicle id="t29_0" type="type" depart="18.00">
        <route edges="B7B8 B8C8 C8D8 D8D7 D7D6 D6D5 D5D4"/>
    </vehicle>
    <vehicle id="t71_0" type="type" depart="18.00">
        <route edges="F0E0 E0E1 E1E2 E2E3 E3E4 E4F4 F4E4"/>
    </vehicle>
    <vehicle id="t31_0" type="type" depart="19.00">
        <route edges="H1H0 H0I0 I0I1"/>
    </vehicle>
    <vehicle id="t20_0" type="type" depart="25.00">
        <route edges="C4D4 D4E4 E4F4 F4G4 G4H4 H4I4 I4I3 I3I2 I2I1"/>
    </vehicle>
    <vehicle id="t76_0" type="type" depart="25.00">
        <route edges="B3C3 C3C4 C4D4 D4E4 E4E5 E5E6 E6E7 E7F7 F7E7"/>
    </vehicle>
    <vehicle id="t97_0" type="type" depart="26.00">
        <route edges="E4F4 F4F5 F5F4"/>
    </vehicle>
    <vehicle id="t21_0" type="type" depart="27.00">
        <route edges="H2H3 H3G3 G3F3"/>
    </vehicle>
    <vehicle id="t59_0" type="type" depart="27.00">
        <route edges="D7E7 E7E6 E6E5 E5D5 D5D4"/>
    </vehicle>
    <vehicle id="t74_0" type="type" depart="27.00">
        <route edges="E6E5 E5E6 E6E7 E7E8 E8F8 F8G8 G8H8 H8G8"/>
    </vehicle>
    <vehicle id="t95_0" type="type" depart="27.00">
        <route edges="E8F8 F8E8 E8D8 D8C8 C8B8 B8A8 A8A7 A7A6 A6A5 A5A4"/>
    </vehicle>
    <vehicle id="t90_0" type="type" depart="29.00">
        <route edges="B4C4 C4D4 D4E4 E4E3 E3E2 E2E1 E1F1 F1F0"/>
    </vehicle>
    <vehicle id="t81_0" type="type" depart="30.00">
        <route edges="E3E4 E4E3 E3E2 E2E1 E1D1"/>
    </vehicle>
    <vehicle id="t46_0" type="type" depart="31.00">
        <route edges="D2D3 D3D2 D2D1 D1D0 D0E0"/>
    </vehicle>
    <vehicle id="t40_0" type="type" depart="32.00">
        <route edges="A3B3 B3B2 B2B1 B1B0 B0C0 C0D0 D0E0 E0F0"/>
    </vehicle>
    <vehicle id="t19_1" type="type" depart="33.00">
        <route edges="C1C0 C0D0 D0E0 E0E1 E1F1 F1E1"/>
    </vehicle>
    <vehicle id="t9_1" type="type" depart="33.00">
        <route edges="F0G0 G0F0 F0F1"/>
    </vehicle>
    <vehicle id="t0_0" type="type" depart="35.00">
        <route edges="G0H0 H0G0 G0F0 F0E0 E0E1 E1E2 E2E3 E3D3 D3E3"/>
    </vehicle>
    <vehicle id="t24_0" type="type" depart="35.00">
        <route edges="F3F2 F2E2 E2E3 E3E4 E4E5 E5E6 E6E7 E7D7 D7C7"/>
    </vehicle>
    <vehicle id="t34_0" type="type" depart="35.00">
        <route edges="G4H4 H4G4 G4G5 G5G4"/>
    </vehicle>
    <vehicle id="t12_0" type="type" depart="37.00">
        <route edges="E2E1 E1E2 E2E3 E3E4 E4E5 E5E6 E6E7 E7E8 E8F8 F8F7"/>
    </vehicle>
    <vehicle id="t48_1" type="type" depart="37.00">
        <route edges="G1G2 G2F2 F2E2 E2E1 E1D1 D1C1 C1C0"/>
    </vehicle>
    <vehicle id="t95_1" type="type" depart="38.00">
        <route edges="E8F8 F8E8 E8D8 D8C8 C8B8 B8A8 A8A7 A7A6 A6A5 A5A4"/>
    </vehicle>
    <vehicle id="t71_1" type="type" depart="39.00">
        <route edges="F0E0 E0E1 E1E2 E2E3 E3E4 E4F4 F4E4"/>
    </vehicle>
    <vehicle id="t86_0" type="type" depart="39.00">
        <route edges="E1F1 F1E1 E1E2 E2E3 E3E4 E4E5 E5E6"/>
    </vehicle>
    <vehicle id="t64_0" type="type" depart="40.00">
        <route edges="I0H0 H0G0 G0F0 F0E0 E0E1 E1E2 E2E3 E3E4 E4E5 E5E6 E6E7 E7E6"/>
    </vehicle>
    <vehicle id="t93_0" type="type" depart="40.00">
        <route edges="D0C0 C0D0 D0E0 E0E1 E1E2 E2E3 E3E4 E4E5 E5E6 E6E7 E7F7 F7F8"/>
    </vehicle>
    <vehicle id="t43_0" type="type" depart="41.00">
        <route edges="E2E1 E1E2 E2E3 E3E4 E4D4 D4C4 C4C5 C5B5"/>
    </vehicle>
    <vehicle id="t75_0" type="type" depart="42.00">
        <route edges="F2E2 E2E3 E3E4 E4F4 F4E4"/>
    </vehicle>
    <vehicle id="t79_0" type="type" depart="42.00">
        <route edges="I5H5 H5G5 G5G6 G6G5"/>
    </vehicle>
    <vehicle id="t90_1" type="type" depart="42.00">
        <route edges="B4C4 C4D4 D4E4 E4E3 E3E2 E2E1 E1F1 F1F0"/>
    </vehicle>
    <vehicle id="t19_2" type="type" depart="43.00">
        <route edges="C1C0 C0D0 D0E0 E0E1 E1F1 F1E1"/>
    </vehicle>
    <vehicle id="t47_0" type="type" depart="43.00">
        <route edges="I0I1 I1I0 I0H0 H0G0 G0F0 F0G0"/>
    </vehicle>
    <vehicle id="t78_0" type="type" depart="44.00">
        <route edges="B3B4 B4C4 C4D4 D4E4 E4F4 F4G4 G4H4 H4I4 I4I3 I3I2"/>
    </vehicle>
    <vehicle id="t41_1" type="type" depart="46.00">
        <route edges="I1I2 I2I1 I1H1 H1H0"/>
    </vehicle>
    <vehicle id="t69_0" type="type" depart="46.00">
        <route edges="E8E7 E7E6 E6E5 E5E4 E4E3 E3E2 E2E1 E1D1 D1C1"/>
    </vehicle>
    <vehicle id="t94_0" type="type" depart="47.00">
        <route edges="A5B5 B5B4 B4C4 C4D4 D4E4 E4E3 E3E2 E2E1 E1E0 E0F0 F0G0 G0F0"/>
    </vehicle>
    <vehicle id="t83_0" type="type" depart="48.00">
        <route edges="B0A0 A0A1 A1A2 A2A3 A3A4 A4B4 B4C4 C4D4 D4E4 E4E3"/>
    </vehicle>
    <vehicle id="t89_0" type="type" depart="51.00">
        <route edges="E7F7 F7F6 F6F5 F5F4 F4G4 G4H4 H4I4 I4I3 I3I4"/>
    </vehicle>
    <vehicle id="t11_0" type="type" depart="52.00">
        <route edges="G5G4 G4H4 H4I4 I4I3 I3H3"/>
    </vehicle>
    <vehicle id="t82_0" type="type" depart="54.00">
        <route edges="D3D2 D2D3 D3D4 D4C4 C4B4 B4B5 B5B6 B6B7"/>
    </vehicle>
    <vehicle id="t94_1" type="type" depart="54.00">
        <route edges="A5B5 B5B4 B4C4 C4D4 D4E4 E4E3 E3E2 E2E1 E1E0 E0F0 F0G0 G0F0"/>
    </vehicle>
    <vehicle id="t40_1" type="type" depart="55.00">
        <route edges="A3B3 B3B2 B2B1 B1B0 B0C0 C0D0 D0E0 E0F0"/>
    </vehicle>
    <vehicle id="t6_1" type="type" depart="55.00">
        <route edges="I4H4 H4G4 G4F4 F4F3 F3G3"/>
    </vehicle>
    <vehicle id="t25_0" type="type" depart="56.00">
        <route edges="A0B0 B0C0 C0D0 D0E0 E0E1 E1E2 E2E3 E3E4 E4F4 F4G4 G4H4 H4I4 I4I5 I5I4"/>
    </vehicle>
    <vehicle id="t7_0" type="type" depart="56.00">
        <route edges="B1A1 A1A2 A2A3 A3A4 A4B4 B4C4 C4D4 D4E4 E4E5 E5E6 E6E7 E7E8 E8F8 F8G8 G8G7"/>
    </vehicle>
    <vehicle id="t50_0" type="type" depart="57.00">
        <route edges="G3F3 F3E3 E3E4 E4D4 D4C4 C4C5 C5B5"/>
    </vehicle>
    <vehicle id="t77_0" type="type" depart="57.00">
        <route edges="C6D6 D6D5 D5D4 D4D3 D3D4"/>
    </vehicle>
    <vehicle id="t98_0" type="type" depart="57.00">
        <route edges="F0F1 F1E1 E1E2 E2E3 E3E4 E4D4 D4C4 C4B4 B4A4 A4A5 A5A6 A6A7 A7A6"/>
    </vehicle>
    <vehicle id="t35_0" type="type" depart="58.00">
        <route edges="D4D5 D5E5 E5E6 E6E7 E7E8 E8F8 F8F7"/>
    </vehicle>
    <vehicle id="t94_2" type="type" depart="60.00">
        <route edges="A5B5 B5B4 B4C4 C4D4 D4E4 E4E3 E3E2 E2E1 E1E0 E0F0 F0G0 G0F0"/>
    </vehicle>
    <vehicle id="t14_0" type="type" depart="61.00">
        <route edges="A6A7 A7A6 A6A5 A5A4 A4B4 B4C4 C4D4 D4E4 E4E3 E3E2 E2E1 E1E0 E0F0"/>
    </vehicle>
    <vehicle id="t52_0" type="type" depart="63.00">
        <route edges="E5E6 E6E7 E7E8 E8D8 D8C8"/>
    </vehicle>
    <vehicle id="t59_1" type="type" depart="63.00">
        <route edges="D7E7 E7E6 E6E5 E5D5 D5D4"/>
    </vehicle>
    <vehicle id="t60_0" type="type" depart="63.00">
        <route edges="B3A3 A3A4 A4B4 B4C4 C4D4 D4E4 E4F4 F4G4 G4H4 H4H5 H5H6 H6G6"/>
    </vehicle>
    <vehicle id="t68_1" type="type" depart="63.00">
        <route edges="E7E8 E8E7 E7E6 E6E5 E5E4 E4E3 E3E2 E2D2 D2C2"/>
    </vehicle>
    <vehicle id="t5_0" type="type" depart="66.00">
        <route edges="A1B1 B1C1 C1D1 D1E1 E1E2 E2F2 F2G2 G2G3"/>
    </vehicle>
    <vehicle id="t80_1" type="type" depart="67.00">
        <route edges="E5D5 D5D4 D4E4 E4F4 F4G4 G4H4 H4I4 I4I3"/>
    </vehicle>
    <vehicle id="t12_1" type="type" depart="68.00">
        <route edges="E2E1 E1E2 E2E3 E3E4 E4E5 E5E6 E6E7 E7E8 E8F8 F8F7"/>
    </vehicle>
    <vehicle id="t21_1" type="type" depart="69.00">
        <route edges="H2H3 H3G3 G3F3"/>
    </vehicle>
    <vehicle id="t29_1" type="type" depart="69.00">
        <route edges="B7B8 B8C8 C8D8 D8D7 D7D6 D6D5 D5D4"/>
    </vehicle>
    <vehicle id="t24_1" type="type" depart="72.00">
        <route edges="F3F2 F2E2 E2E3 E3E4 E4E5 E5E6 E6E7 E7D7 D7C7"/>
    </vehicle>
    <vehicle id="t35_1" type="type" depart="72.00">
        <route edges="D4D5 D5E5 E5E6 E6E7 E7E8 E8F8 F8F7"/>
    </vehicle>
    <vehicle id="t51_0" type="type" depart="73.00">
        <route edges="D5E5 E5E6 E6E7 E7E8"/>
    </vehicle>
    <vehicle id="t97_1" type="type" depart="73.00">
        <route edges="E4F4 F4F5 F5F4"/>
    </vehicle>
    <vehicle id="t0_1" type="type" depart="75.00">
        <route edges="G0H0 H0G0 G0F0 F0E0 E0E1 E1E2 E2E3 E3D3 D3E3"/>
    </vehicle>
    <vehicle id="t36_0" type="type" depart="75.00">
        <route edges="F2E2 E2E3 E3E4 E4D4 D4C4 C4B4 B4A4 A4A5"/>
    </vehicle>
    <vehicle id="t88_1" type="type" depart="75.00">
        <route edges="E3E2 E2E3 E3E4 E4E5 E5E6 E6E7 E7E8 E8D8 D8C8 C8D8"/>
    </vehicle>
    <vehicle id="t64_1" type="type" depart="76.00">
        <route edges="I0H0 H0G0 G0F0 F0E0 E0E1 E1E2 E2E3 E3E4 E4E5 E5E6 E6E7 E7E6"/>
    </vehicle>
    <vehicle id="t18_0" type="type" depart="77.00">
        <route edges="A2A1 A1A2 A2A3 A3A4 A4B4 B4C4 C4D4 D4E4 E4E5 E5E6 E6E7 E7E8 E8E7"/>
    </vehicle>
    <vehicle id="t22_0" type="type" depart="77.00">
        <route edges="H1G1 G1G0 G0F0 F0E0 E0D0"/>
    </vehicle>
    <vehicle id="t23_0" type="type" depart="78.00">
        <route edges="G7H7 H7G7 G7F7 F7E7 E7E6 E6E5 E5E4 E4D4 D4C4 C4C3 C3B3"/>
    </vehicle>
    <vehicle id="t92_0" type="type" depart="78.00">
        <route edges="A1A2 A2B2 B2C2 C2D2 D2E2 E2F2 F2G2 G2H2 H2H1"/>
    </vehicle>
    <vehicle id="t66_0" type="type" depart="80.00">
        <route edges="H0I0 I0I1 I1I2 I2I3 I3I4 I4H4 H4G4 G4F4 F4E4"/>
    </vehicle>
    <vehicle id="t36_1" type="type" depart="81.00">
        <route edges="F2E2 E2E3 E3E4 E4D4 D4C4 C4B4 B4A4 A4A5"/>
    </vehicle>
    <vehicle id="t77_1" type="type" depart="81.00">
        <route edges="C6D6 D6D5 D5D4 D4D3 D3D4"/>
    </vehicle>
    <vehicle id="t54_1" type="type" depart="82.00">
        <route edges="A0B0 B0C0 C0D0 D0E0 E0E1 E1E2 E2E3 E3E4 E4F4 F4G4 G4H4 H4H5 H5H6 H6H7"/>
    </vehicle>
    <vehicle id="t17_0" type="type" depart="83.00">
        <route edges="D4C4 C4C3 C3C2 C2C1 C1B1"/>
    </vehicle>
    <vehicle id="t23_1" type="type" depart="83.00">
        <route edges="G7H7 H7G7 G7F7 F7E7 E7E6 E6E5 E5E4 E4D4 D4C4 C4C3 C3B3"/>
    </vehicle>
    <vehicle id="t34_1" type="type" depart="83.00">
        <route edges="G4H4 H4G4 G4G5 G5G4"/>
    </vehicle>
    <vehicle id="t65_0" type="type" depart="83.00">
        <route edges="F8G8 G8H8 H8H7 H7H6 H6H5 H5H4 H4H3 H3H2 H2H1 H1G1"/>
    </vehicle>
    <vehicle id="t44_0" type="type" depart="88.00">
        <route edges="F2F3 F3F4 F4G4 G4H4 H4I4 I4I5 I5I6 I6H6"/>
    </vehicle>
    <vehicle id="t96_0" type="type" depart="89.00">
        <route edges="I1I0 I0H0 H0G0 G0F0 F0E0 E0D0 D0C0 C0D0"/>
    </vehicle>
    <vehicle id="t22_1" type="type" depart="90.00">
        <route edges="H1G1 G1G0 G0F0 F0E0 E0D0"/>
    </vehicle>
    <vehicle id="t49_0" type="type" depart="90.00">
        <route edges="B8C8 C8C7 C7C6 C6C5 C5C4 C4C3 C3C2 C2C1 C1C0 C0D0"/>
    </vehicle>
    <vehicle id="t75_1" type="type" depart="93.00">
        <route edges="F2E2 E2E3 E3E4 E4F4 F4E4"/>
    </vehicle>
    <vehicle id="t55_0" type="type" depart="96.00">
        <route edges="I2I1 I1I2 I2I3 I3I4 I4H4 H4G4 G4F4 F4E4 E4D4 D4C4 C4B4 B4A4 A4A5 A5A6"/>
    </vehicle>
    <vehicle id="t76_1" type="type" depart="96.00">
        <route edges="B3C3 C3C4 C4D4 D4E4 E4E5 E5E6 E6E7 E7F7 F7E7"/>
    </vehicle>
    <vehicle id="t22_2" type="type" depart="98.00">
        <route edges="H1G1 G1G0 G0F0 F0E0 E0D0"/>
    </vehicle>
    <vehicle id="t9_2" type="type" depart="99.00">
        <route edges="F0G0 G0F0 F0F1"/>
    </vehicle>
    <vehicle id="t63_0" type="type" depart="100.00">
        <route edges="A1A0 A0A1 A1A2 A2A3 A3A4 A4B4 B4B3"/>
    </vehicle>
    <vehicle id="t89_1" type="type" depart="100.00">
        <route edges="E7F7 F7F6 F6F5 F5F4 F4G4 G4H4 H4I4 I4I3 I3I4"/>
    </vehicle>
    <vehicle id="t91_0" type="type" depart="100.00">
        <route edges="A0A1 A1A0 A0B0 B0C0 C0D0 D0E0 E0F0 F0G0 G0H0 H0I0 I0I1"/>
    </vehicle>
    <vehicle id="t46_1" type="type" depart="101.00">
        <route edges="D2D3 D3D2 D2D1 D1D0 D0E0"/>
    </vehicle>
    <vehicle id="t50_1" type="type" depart="101.00">
        <route edges="G3F3 F3E3 E3E4 E4D4 D4C4 C4C5 C5B5"/>
    </vehicle>
    <vehicle id="t83_1" type="type" depart="101.00">
        <route edges="B0A0 A0A1 A1A2 A2A3 A3A4 A4B4 B4C4 C4D4 D4E4 E4E3"/>
    </vehicle>
    <vehicle id="t99_0" type="type" depart="101.00">
        <route edges="B7C7 C7D7 D7E7 E7E6 E6E5 E5F5 F5G5 G5H5 H5I5 I5I4"/>
    </vehicle>
    <vehicle id="t4_0" type="type" depart="103.00">
        <route edges="I3H3 H3G3 G3F3 F3E3 E3D3 D3C3 C3B3 B3A3 A3A4"/>
    </vehicle>
    <vehicle id="t23_2" type="type" depart="104.00">
        <route edges="G7H7 H7G7 G7F7 F7E7 E7E6 E6E5 E5E4 E4D4 D4C4 C4C3 C3B3"/>
    </vehicle>
    <vehicle id="t35_2" type="type" depart="104.00">
        <route edges="D4D5 D5E5 E5E6 E6E7 E7E8 E8F8 F8F7"/>
    </vehicle>
    <vehicle id="t57_0" type="type" depart="105.00">
        <route edges="D8E8 E8F8 F8G8 G8H8 H8H7 H7H6 H6G6"/>
    </vehicle>
    <vehicle id="t72_0" type="type" depart="106.00">
        <route edges="I8H8 H8G8 G8F8 F8E8 E8E7 E7E6 E6E5 E5D5 D5C5 C5C4"/>
    </vehicle>
    <vehicle id="t79_1" type="type" depart="106.00">
        <route edges="I5H5 H5G5 G5G6 G6G5"/>
    </vehicle>
    <vehicle id="t97_2" type="type" depart="106.00">
        <route edges="E4F4 F4F5 F5F4"/>
    </vehicle>
    <vehicle id="t45_1" type="type" depart="107.00">
        <route edges="A1A0 A0A1 A1A2 A2A3 A3A4 A4B4 B4C4 C4D4 D4E4 E4E5 E5E6 E6F6 F6E6"/>
    </vehicle>
    <vehicle id="t26_1" type="type" depart="108.00">
        <route edges="E5E6 E6E7 E7E8 E8D8 D8D7"/>
    </vehicle>
    <vehicle id="t53_1" type="type" depart="108.00">
        <route edges="F1E1 E1E2 E2E3 E3F3 F3E3"/>
    </vehicle>
    <vehicle id="t57_1" type="type" depart="111.00">
        <route edges="D8E8 E8F8 F8G8 G8H8 H8H7 H7H6 H6G6"/>
    </vehicle>
    <vehicle id="t92_1" type="type" depart="112.00">
        <route edges="A1A2 A2B2 B2C2 C2D2 D2E2 E2F2 F2G2 G2H2 H2H1"/>
    </vehicle>
    <vehicle id="t7_1" type="type" depart="115.00">
        <route edges="B1A1 A1A2 A2A3 A3A4 A4B4 B4C4 C4D4 D4E4 E4E5 E5E6 E6E7 E7E8 E8F8 F8G8 G8G7"/>
    </vehicle>
    <vehicle id="t32_0" type="type" depart="117.00">
        <route edges="E2E3 E3E4 E4F4 F4G4 G4H4 H4H5 H5H6"/>
    </vehicle>
    <vehicle id="t26_2" type="type" depart="119.00">
        <route edges="E5E6 E6E7 E7E8 E8D8 D8D7"/>
    </vehicle>
    <vehicle id="t8_0" type="type" depart="119.00">
        <route edges="B4A4 A4A5 A5A6 A6B6 B6C6 C6B6"/>
    </vehicle>
    <vehicle id="t78_1" type="type" depart="120.00">
        <route edges="B3B4 B4C4 C4D4 D4E4 E4F4 F4G4 G4H4 H4I4 I4I3 I3I2"/>
    </vehicle>
    <vehicle id="t90_2" type="type" depart="120.00">
        <route edges="B4C4 C4D4 D4E4 E4E3 E3E2 E2E1 E1F1 F1F0"/>
    </vehicle>
    <vehicle id="t58_1" type="type" depart="121.00">
        <route edges="G2H2 H2H3 H3H4 H4G4 G4F4 F4E4 E4E5 E5E6 E6E7 E7E8 E8D8 D8C8 C8B8"/>
    </vehicle>
    <vehicle id="t39_1" type="type" depart="122.00">
        <route edges="F6F7 F7F6 F6F5 F5F4 F4G4 G4H4 H4I4 I4I3 I3I2 I2H2"/>
    </vehicle>
    <vehicle id="t63_1" type="type" depart="124.00">
        <route edges="A1A0 A0A1 A1A2 A2A3 A3A4 A4B4 B4B3"/>
    </vehicle>
    <vehicle id="t13_1" type="type" depart="125.00">
        <route edges="G3H3 H3H2 H2H1 H1H0 H0G0 G0G1"/>
    </vehicle>
    <vehicle id="t37_0" type="type" depart="125.00">
        <route edges="I3I4 I4H4 H4G4 G4F4 F4E4 E4E3 E3E2 E2E1"/>
    </vehicle>
    <vehicle id="t67_0" type="type" depart="127.00">
        <route edges="A3B3 B3B4 B4C4 C4D4 D4E4 E4F4 F4G4 G4H4"/>
    </vehicle>
    <vehicle id="t0_2" type="type" depart="128.00">
        <route edges="G0H0 H0G0 G0F0 F0E0 E0E1 E1E2 E2E3 E3D3 D3E3"/>
    </vehicle>
    <vehicle id="t36_2" type="type" depart="128.00">
        <route edges="F2E2 E2E3 E3E4 E4D4 D4C4 C4B4 B4A4 A4A5"/>
    </vehicle>
    <vehicle id="t24_2" type="type" depart="129.00">
        <route edges="F3F2 F2E2 E2E3 E3E4 E4E5 E5E6 E6E7 E7D7 D7C7"/>
    </vehicle>
    <vehicle id="t3_1" type="type" depart="130.00">
        <route edges="G7G8 G8F8 F8E8"/>
    </vehicle>
    <vehicle id="t49_1" type="type" depart="130.00">
        <route edges="B8C8 C8C7 C7C6 C6C5 C5C4 C4C3 C3C2 C2C1 C1C0 C0D0"/>
    </vehicle>
    <vehicle id="t93_1" type="type" depart="134.00">
        <route edges="D0C0 C0D0 D0E0 E0E1 E1E2 E2E3 E3E4 E4E5 E5E6 E6E7 E7F7 F7F8"/>
    </vehicle>
    <vehicle id="t28_1" type="type" depart="135.00">
        <route edges="B2C2 C2D2 D2E2 E2F2 F2F1"/>
    </vehicle>
    <vehicle id="t91_1" type="type" depart="135.00">
        <route edges="A0A1 A1A0 A0B0 B0C0 C0D0 D0E0 E0F0 F0G0 G0H0 H0I0 I0I1"/>
    </vehicle>
    <vehicle id="t98_1" type="type" depart="135.00">
        <route edges="F0F1 F1E1 E1E2 E2E3 E3E4 E4D4 D4C4 C4B4 B4A4 A4A5 A5A6 A6A7 A7A6"/>
    </vehicle>
    <vehicle id="t60_1" type="type" depart="136.00">
        <route edges="B3A3 A3A4 A4B4 B4C4 C4D4 D4E4 E4F4 F4G4 G4H4 H4H5 H5H6 H6G6"/>
    </vehicle>
    <vehicle id="t43_1" type="type" depart="137.00">
        <route edges="E2E1 E1E2 E2E3 E3E4 E4D4 D4C4 C4C5 C5B5"/>
    </vehicle>
    <vehicle id="t56_0" type="type" depart="137.00">
        <route edges="I0I1"/>
    </vehicle>
    <vehicle id="t2_1" type="type" depart="138.00">
        <route edges="G1H1 H1G1 G1F1 F1E1 E1E2 E2D2 D2C2 C2C3"/>
    </vehicle>
    <vehicle id="t59_2" type="type" depart="139.00">
        <route edges="D7E7 E7E6 E6E5 E5D5 D5D4"/>
    </vehicle>
    <vehicle id="t8_1" type="type" depart="139.00">
        <route edges="B4A4 A4A5 A5A6 A6B6 B6C6 C6B6"/>
    </vehicle>
    <vehicle id="t1_0" type="type" depart="140.00">
        <route edges="I5I6 I6I5 I5I4 I4H4 H4G4 G4F4 F4F3 F3F2 F2E2"/>
    </vehicle>
    <vehicle id="t40_2" type="type" depart="141.00">
        <route edges="A3B3 B3B2 B2B1 B1B0 B0C0 C0D0 D0E0 E0F0"/>
    </vehicle>
    <vehicle id="t15_0" type="type" depart="142.00">
        <route edges="D4E4 E4F4 F4G4 G4H4 H4I4 I4I3 I3I2 I2I1 I1I0"/>
    </vehicle>
    <vehicle id="t21_2" type="type" depart="142.00">
        <route edges="H2H3 H3G3 G3F3"/>
    </vehicle>
    <vehicle id="t70_1" type="type" depart="142.00">
        <route edges="F5G5 G5G4 G4G3"/>
    </vehicle>
    <vehicle id="t87_0" type="type" depart="142.00">
        <route edges="G8H8 H8G8 G8F8 F8E8 E8E7 E7E6 E6E5 E5E4 E4E3 E3E2 E2E1 E1D1 D1C1 C1D1"/>
    </vehicle>
    <vehicle id="t78_2" type="type" depart="145.00">
        <route edges="B3B4 B4C4 C4D4 D4E4 E4F4 F4G4 G4H4 H4I4 I4I3 I3I2"/>
    </vehicle>
    <vehicle id="t80_2" type="type" depart="145.00">
        <route edges="E5D5 D5D4 D4E4 E4F4 F4G4 G4H4 H4I4 I4I3"/>
    </vehicle>
    <vehicle id="t86_1" type="type" depart="146.00">
        <route edges="E1F1 F1E1 E1E2 E2E3 E3E4 E4E5 E5E6"/>
    </vehicle>
    <vehicle id="t13_2" type="type" depart="147.00">
        <route edges="G3H3 H3H2 H2H1 H1H0 H0G0 G0G1"/>
    </vehicle>
    <vehicle id="t42_1" type="type" depart="148.00">
        <route edges="A6A7 A7B7 B7C7 C7D7 D7D6"/>
    </vehicle>
    <vehicle id="t5_1" type="type" depart="148.00">
        <route edges="A1B1 B1C1 C1D1 D1E1 E1E2 E2F2 F2G2 G2G3"/>
    </vehicle>
    <vehicle id="t55_1" type="type" depart="149.00">
        <route edges="I2I1 I1I2 I2I3 I3I4 I4H4 H4G4 G4F4 F4E4 E4D4 D4C4 C4B4 B4A4 A4A5 A5A6"/>
    </vehicle>
    <vehicle id="t16_0" type="type" depart="150.00">
        <route edges="D4C4 C4D4 D4E4 E4F4 F4E4"/>
    </vehicle>
    <vehicle id="t16_1" type="type" depart="151.00">
        <route edges="D4C4 C4D4 D4E4 E4F4 F4E4"/>
    </vehicle>
    <vehicle id="t42_2" type="type" depart="151.00">
        <route edges="A6A7 A7B7 B7C7 C7D7 D7D6"/>
    </vehicle>
    <vehicle id="t58_2" type="type" depart="155.00">
        <route edges="G2H2 H2H3 H3H4 H4G4 G4F4 F4E4 E4E5 E5E6 E6E7 E7E8 E8D8 D8C8 C8B8"/>
    </vehicle>
    <vehicle id="t72_1" type="type" depart="155.00">
        <route edges="I8H8 H8G8 G8F8 F8E8 E8E7 E7E6 E6E5 E5D5 D5C5 C5C4"/>
    </vehicle>
    <vehicle id="t74_1" type="type" depart="156.00">
        <route edges="E6E5 E5E6 E6E7 E7E8 E8F8 F8G8 G8H8 H8G8"/>
    </vehicle>
    <vehicle id="t96_1" type="type" depart="156.00">
        <route edges="I1I0 I0H0 H0G0 G0F0 F0E0 E0D0 D0C0 C0D0"/>
    </vehicle>
    <vehicle id="t10_1" type="type" depart="157.00">
        <route edges="E1E0 E0D0 D0C0 C0B0 B0A0 A0A1 A1A2"/>
    </vehicle>
    <vehicle id="t38_0" type="type" depart="158.00">
        <route edges="I5H5 H5H4 H4G4 G4F4 F4E4 E4D4 D4C4 C4B4 B4B3"/>
    </vehicle>
    <vehicle id="t34_2" type="type" depart="161.00">
        <route edges="G4H4 H4G4 G4G5 G5G4"/>
    </vehicle>
    <vehicle id="t51_1" type="type" depart="161.00">
        <route edges="D5E5 E5E6 E6E7 E7E8"/>
    </vehicle>
    <vehicle id="t11_1" type="type" depart="162.00">
        <route edges="G5G4 G4H4 H4I4 I4I3 I3H3"/>
    </vehicle>
    <vehicle id="t20_1" type="type" depart="162.00">
        <route edges="C4D4 D4E4 E4F4 F4G4 G4H4 H4I4 I4I3 I3I2 I2I1"/>
    </vehicle>
    <vehicle id="t20_2" type="type" depart="163.00">
        <route edges="C4D4 D4E4 E4F4 F4G4 G4H4 H4I4 I4I3 I3I2 I2I1"/>
    </vehicle>
    <vehicle id="t45_2" type="type" depart="163.00">
        <route edges="A1A0 A0A1 A1A2 A2A3 A3A4 A4B4 B4C4 C4D4 D4E4 E4E5 E5E6 E6F6 F6E6"/>
    </vehicle>
    <vehicle id="t50_2" type="type" depart="163.00">
        <route edges="G3F3 F3E3 E3E4 E4D4 D4C4 C4C5 C5B5"/>
    </vehicle>
    <vehicle id="t99_1" type="type" depart="163.00">
        <route edges="B7C7 C7D7 D7E7 E7E6 E6E5 E5F5 F5G5 G5H5 H5I5 I5I4"/>
    </vehicle>
    <vehicle id="t87_1" type="type" depart="164.00">
        <route edges="G8H8 H8G8 G8F8 F8E8 E8E7 E7E6 E6E5 E5E4 E4E3 E3E2 E2E1 E1D1 D1C1 C1D1"/>
    </vehicle>
    <vehicle id="t52_1" type="type" depart="165.00">
        <route edges="E5E6 E6E7 E7E8 E8D8 D8C8"/>
    </vehicle>
    <vehicle id="t39_2" type="type" depart="167.00">
        <route edges="F6F7 F7F6 F6F5 F5F4 F4G4 G4H4 H4I4 I4I3 I3I2 I2H2"/>
    </vehicle>
    <vehicle id="t25_1" type="type" depart="168.00">
        <route edges="A0B0 B0C0 C0D0 D0E0 E0E1 E1E2 E2E3 E3E4 E4F4 F4G4 G4H4 H4I4 I4I5 I5I4"/>
    </vehicle>
    <vehicle id="t4_1" type="type" depart="169.00">
        <route edges="I3H3 H3G3 G3F3 F3E3 E3D3 D3C3 C3B3 B3A3 A3A4"/>
    </vehicle>
    <vehicle id="t61_0" type="type" depart="169.00">
        <route edges="E5E4 E4F4 F4F3"/>
    </vehicle>
    <vehicle id="t88_2" type="type" depart="169.00">
        <route edges="E3E2 E2E3 E3E4 E4E5 E5E6 E6E7 E7E8 E8D8 D8C8 C8D8"/>
    </vehicle>
    <vehicle id="t82_1" type="type" depart="170.00">
        <route edges="D3D2 D2D3 D3D4 D4C4 C4B4 B4B5 B5B6 B6B7"/>
    </vehicle>
    <vehicle id="t31_1" type="type" depart="171.00">
        <route edges="H1H0 H0I0 I0I1"/>
    </vehicle>
    <vehicle id="t37_1" type="type" depart="171.00">
        <route edges="I3I4 I4H4 H4G4 G4F4 F4E4 E4E3 E3E2 E2E1"/>
    </vehicle>
    <vehicle id="t65_1" type="type" depart="171.00">
        <route edges="F8G8 G8H8 H8H7 H7H6 H6H5 H5H4 H4H3 H3H2 H2H1 H1G1"/>
    </vehicle>
    <vehicle id="t99_2" type="type" depart="171.00">
        <route edges="B7C7 C7D7 D7E7 E7E6 E6E5 E5F5 F5G5 G5H5 H5I5 I5I4"/>
    </vehicle>
    <vehicle id="t56_1" type="type" depart="173.00">
        <route edges="I0I1"/>
    </vehicle>
    <vehicle id="t96_2" type="type" depart="173.00">
        <route edges="I1I0 I0H0 H0G0 G0F0 F0E0 E0D0 D0C0 C0D0"/>
    </vehicle>
    <vehicle id="t17_1" type="type" depart="174.00">
        <route edges="D4C4 C4C3 C3C2 C2C1 C1B1"/>
    </vehicle>
    <vehicle id="t27_2" type="type" depart="174.00">
        <route edges="C6B6 B6B7 B7B8 B8C8 C8D8 D8D7"/>
    </vehicle>
    <vehicle id="t95_2" type="type" depart="174.00">
        <route edges="E8F8 F8E8 E8D8 D8C8 C8B8 B8A8 A8A7 A7A6 A6A5 A5A4"/>
    </vehicle>
    <vehicle id="t60_2" type="type" depart="176.00">
        <route edges="B3A3 A3A4 A4B4 B4C4 C4D4 D4E4 E4F4 F4G4 G4H4 H4H5 H5H6 H6G6"/>
    </vehicle>
    <vehicle id="t84_1" type="type" depart="176.00">
        <route edges="B4C4 C4D4 D4E4 E4E3 E3E2 E2E1 E1F1 F1G1 G1G2"/>
    </vehicle>
    <vehicle id="t56_2" type="type" depart="177.00">
        <route edges="I0I1"/>
    </vehicle>
    <vehicle id="t66_1" type="type" depart="177.00">
        <route edges="H0I0 I0I1 I1I2 I2I3 I3I4 I4H4 H4G4 G4F4 F4E4"/>
    </vehicle>
    <vehicle id="t70_2" type="type" depart="178.00">
        <route edges="F5G5 G5G4 G4G3"/>
    </vehicle>
    <vehicle id="t29_2" type="type" depart="179.00">
        <route edges="B7B8 B8C8 C8D8 D8D7 D7D6 D6D5 D5D4"/>
    </vehicle>
    <vehicle id="t38_1" type="type" depart="179.00">
        <route edges="I5H5 H5H4 H4G4 G4F4 F4E4 E4D4 D4C4 C4B4 B4B3"/>
    </vehicle>
    <vehicle id="t41_2" type="type" depart="179.00">
        <route edges="I1I2 I2I1 I1H1 H1H0"/>
    </vehicle>
    <vehicle id="t12_2" type="type" depart="180.00">
        <route edges="E2E1 E1E2 E2E3 E3E4 E4E5 E5E6 E6E7 E7E8 E8F8 F8F7"/>
    </vehicle>
    <vehicle id="t75_2" type="type" depart="180.00">
        <route edges="F2E2 E2E3 E3E4 E4F4 F4E4"/>
    </vehicle>
    <vehicle id="t69_1" type="type" depart="181.00">
        <route edges="E8E7 E7E6 E6E5 E5E4 E4E3 E3E2 E2E1 E1D1 D1C1"/>
    </vehicle>
    <vehicle id="t37_2" type="type" depart="182.00">
        <route edges="I3I4 I4H4 H4G4 G4F4 F4E4 E4E3 E3E2 E2E1"/>
    </vehicle>
    <vehicle id="t30_0" type="type" depart="185.00">
        <route edges="A6A5 A5A4 A4B4 B4C4 C4D4 D4E4 E4F4 F4G4 G4H4 H4H5"/>
    </vehicle>
    <vehicle id="t65_2" type="type" depart="185.00">
        <route edges="F8G8 G8H8 H8H7 H7H6 H6H5 H5H4 H4H3 H3H2 H2H1 H1G1"/>