<?xml version="1.0"?>

<!-- generated on 03/24/11 10:03:24 by SUMO netconvert Version 0.12.2
<?xml version="1.0" encoding="iso-8859-1"?>

<configuration xmlns:xsi="http://www.w3.org/2001/XMLSchema-instance" xsi:noNamespaceSchemaLocation="http://sumo.sf.net/xsd/netconvertConfiguration.xsd">

    <input>
        <xml-node-files value="manhattan.net.xml.nod.xml"/>
        <xml-edge-files value="manhattan.net.xml.edg.xml"/>
        <xml-type-files value="default.typ.xml"/>
    </input>

    <output>
        <output-file value="manhattan.net.xml.net.xml"/>
    </output>

    <report>
        <verbose value="true"/>
    </report>

</configuration>
-->

<net>

   <location netOffset="0.00,0.00" convBoundary="0.00,0.00,1600.00,1600.00" origBoundary="0.00,0.00,1600.00,1600.00" projParameter="!"/>

   <edge id=":A0_0" function="internal">
      <lanes>
         <lane id=":A0_0_0" depart="0" maxspeed="13.90" length="18.55" shape="-4.95,6.55 -4.23,1.52 -2.08,-2.07 1.52,-4.23 6.55,-4.95"/>
      </lanes>
   </edge>
   <edge id=":A0_1" function="internal">
      <lanes>
         <lane id=":A0_1_0" depart="0" maxspeed="13.90" length="13.22" shape="-1.65,6.55 -1.14,2.96 0.40,0.40 2.96,-1.14 6.55,-1.65"/>
      </lanes>
   </edge>
   <edge id=":A0_2" function="internal">
      <lanes>
         <lane id=":A0_2_0" depart="0" maxspeed="13.90" length="0.10" shape="-1.65,6.55 -0.88,5.40"/>
      </lanes>
   </edge>
   <edge id=":A0_6" function="internal">
      <lanes>
         <lane id=":A0_6_0" depart="0" maxspeed="13.90" length="4.72" shape="-0.88,5.40 -0.83,5.31 -0.00,4.90 0.82,5.31 1.65,6.55"/>
      </lanes>
   </edge>
   <edge id=":A0_3" function="internal">
      <lanes>
         <lane id=":A0_3_0" depart="0" maxspeed="13.90" length="2.58" shape="6.55,4.95 5.85,5.05 5.35,5.35 5.05,5.85 4.95,6.55"/>
      </lanes>
   </edge>
   <edge id=":A0_4" function="internal">
      <lanes>
         <lane id=":A0_4_0" depart="0" maxspeed="13.90" length="7.90" shape="6.55,1.65 4.41,1.96 2.88,2.87 1.96,4.41 1.65,6.55"/>
      </lanes>
   </edge>
   <edge id=":A0_5" function="internal">
      <lanes>
         <lane id=":A0_5_0" depart="0" maxspeed="13.90" length="0.10" shape="6.55,1.65 5.40,0.88"/>
      </lanes>
   </edge>
   <edge id=":A0_7" function="internal">
      <lanes>
         <lane id=":A0_7_0" depart="0" maxspeed="13.90" length="4.72" shape="5.40,0.88 5.31,0.82 4.90,-0.00 5.31,-0.83 6.55,-1.65"/>
      </lanes>
   </edge>
   <edge id=":A1_0" function="internal">
      <lanes>
         <lane id=":A1_0_0" depart="0" maxspeed="13.90" length="9.50" shape="-4.95,204.75 -4.95,195.25"/>
      </lanes>
   </edge>
   <edge id=":A1_1" function="internal">
      <lanes>
         <lane id=":A1_1_0" depart="0" maxspeed="13.90" length="9.50" shape="-1.65,204.75 -1.65,195.25"/>
      </lanes>
   </edge>
   <edge id=":A1_2" function="internal">
      <lanes>
         <lane id=":A1_2_0" depart="0" maxspeed="12.50" length="6.51" shape="-1.65,204.75 -1.04,201.95 2.93,199.10"/>
      </lanes>
   </edge>
   <edge id=":A1_11" function="internal">
      <lanes>
         <lane id=":A1_11_0" depart="0" maxspeed="12.50" length="6.58" shape="2.93,199.10 3.81,198.75 8.05,198.35"/>
      </lanes>
   </edge>
   <edge id=":A1_3" function="internal">
      <lanes>
         <lane id=":A1_3_0" depart="0" maxspeed="13.90" length="0.10" shape="-1.65,204.75 -0.88,203.60"/>
      </lanes>
   </edge>
   <edge id=":A1_12" function="internal">
      <lanes>
         <lane id=":A1_12_0" depart="0" maxspeed="13.90" length="4.72" shape="-0.88,203.60 -0.83,203.51 -0.00,203.10 0.82,203.51 1.65,204.75"/>
      </lanes>
   </edge>
   <edge id=":A1_4" function="internal">
      <lanes>
         <lane id=":A1_4_0" depart="0" maxspeed="12.50" length="5.00" shape="8.05,201.65 6.69,201.84 5.73,202.43 5.14,203.39 4.95,204.75"/>
      </lanes>
   </edge>
   <edge id=":A1_5" function="internal">
      <lanes>
         <lane id=":A1_5_0" depart="0" maxspeed="12.50" length="3.11" shape="8.05,201.65 6.91,201.54"/>
      </lanes>
   </edge>
   <edge id=":A1_13" function="internal">
      <lanes>
         <lane id=":A1_13_0" depart="0" maxspeed="12.50" length="9.98" shape="6.91,201.54 3.81,201.25 0.77,200.05 -1.04,198.05 -1.65,195.25"/>
      </lanes>
   </edge>
   <edge id=":A1_6" function="internal">
      <lanes>
         <lane id=":A1_6_0" depart="0" maxspeed="11.10" length="0.10" shape="8.05,201.65 6.90,200.88"/>
      </lanes>
   </edge>
   <edge id=":A1_14" function="internal">
      <lanes>
         <lane id=":A1_14_0" depart="0" maxspeed="11.10" length="4.72" shape="6.90,200.88 6.81,200.83 6.40,200.00 6.81,199.18 8.05,198.35"/>
      </lanes>
   </edge>
   <edge id=":A1_7" function="internal">
      <lanes>
         <lane id=":A1_7_0" depart="0" maxspeed="12.50" length="5.00" shape="4.95,195.25 5.14,196.61 5.73,197.58 6.69,198.16 8.05,198.35"/>
      </lanes>
   </edge>
   <edge id=":A1_8" function="internal">
      <lanes>
         <lane id=":A1_8_0" depart="0" maxspeed="13.90" length="9.50" shape="4.95,195.25 4.95,204.75"/>
      </lanes>
   </edge>
   <edge id=":A1_9" function="internal">
      <lanes>
         <lane id=":A1_9_0" depart="0" maxspeed="13.90" length="9.50" shape="1.65,195.25 1.65,204.75"/>
      </lanes>
   </edge>
   <edge id=":A1_10" function="internal">
      <lanes>
         <lane id=":A1_10_0" depart="0" maxspeed="13.90" length="0.10" shape="1.65,195.25 0.88,196.40"/>
      </lanes>
   </edge>
   <edge id=":A1_15" function="internal">
      <lanes>
         <lane id=":A1_15_0" depart="0" maxspeed="13.90" length="4.72" shape="0.88,196.40 0.83,196.49 0.00,196.90 -0.82,196.49 -1.65,195.25"/>
      </lanes>
   </edge>
   <edge id=":A2_0" function="internal">
      <lanes>
         <lane id=":A2_0_0" depart="0" maxspeed="13.90" length="9.50" shape="-4.95,404.75 -4.95,395.25"/>
      </lanes>
   </edge>
   <edge id=":A2_1" function="internal">
      <lanes>
         <lane id=":A2_1_0" depart="0" maxspeed="13.90" length="9.50" shape="-1.65,404.75 -1.65,395.25"/>
      </lanes>
   </edge>
   <edge id=":A2_2" function="internal">
      <lanes>
         <lane id=":A2_2_0" depart="0" maxspeed="12.50" length="6.51" shape="-1.65,404.75 -1.04,401.95 2.93,399.10"/>
      </lanes>
   </edge>
   <edge id=":A2_11" function="internal">
      <lanes>
         <lane id=":A2_11_0" depart="0" maxspeed="12.50" length="6.58" shape="2.93,399.10 3.81,398.75 8.05,398.35"/>
      </lanes>
   </edge>
   <edge id=":A2_3" function="internal">
      <lanes>
         <lane id=":A2_3_0" depart="0" maxspeed="13.90" length="0.10" shape="-1.65,404.75 -0.88,403.60"/>
      </lanes>
   </edge>
   <edge id=":A2_12" function="internal">
      <lanes>
         <lane id=":A2_12_0" depart="0" maxspeed="13.90" length="4.72" shape="-0.88,403.60 -0.83,403.51 -0.00,403.10 0.82,403.51 1.65,404.75"/>
      </lanes>
   </edge>
   <edge id=":A2_4" function="internal">
      <lanes>
         <lane id=":A2_4_0" depart="0" maxspeed="12.50" length="5.00" shape="8.05,401.65 6.69,401.84 5.73,402.43 5.14,403.39 4.95,404.75"/>
      </lanes>
   </edge>
   <edge id=":A2_5" function="internal">
      <lanes>
         <lane id=":A2_5_0" depart="0" maxspeed="12.50" length="3.11" shape="8.05,401.65 6.91,401.54"/>
      </lanes>
   </edge>
   <edge id=":A2_13" function="internal">
      <lanes>
         <lane id=":A2_13_0" depart="0" maxspeed="12.50" length="9.98" shape="6.91,401.54 3.81,401.25 0.77,400.05 -1.04,398.05 -1.65,395.25"/>
      </lanes>
   </edge>
   <edge id=":A2_6" function="internal">
      <lanes>
         <lane id=":A2_6_0" depart="0" maxspeed="11.10" length="0.10" shape="8.05,401.65 6.90,400.88"/>
      </lanes>
   </edge>
   <edge id=":A2_14" function="internal">
      <lanes>
         <lane id=":A2_14_0" depart="0" maxspeed="11.10" length="4.72" shape="6.90,400.88 6.81,400.83 6.40,400.00 6.81,399.18 8.05,398.35"/>
      </lanes>
   </edge>
   <edge id=":A2_7" function="internal">
      <lanes>
         <lane id=":A2_7_0" depart="0" maxspeed="12.50" length="5.00" shape="4.95,395.25 5.14,396.61 5.73,397.58 6.69,398.16 8.05,398.35"/>
      </lanes>
   </edge>
   <edge id=":A2_8" function="internal">
      <lanes>
         <lane id=":A2_8_0" depart="0" maxspeed="13.90" length="9.50" shape="4.95,395.25 4.95,404.75"/>
      </lanes>
   </edge>
   <edge id=":A2_9" function="internal">
      <lanes>
         <lane id=":A2_9_0" depart="0" maxspeed="13.90" length="9.50" shape="1.65,395.25 1.65,404.75"/>
      </lanes>
   </edge>
   <edge id=":A2_10" function="internal">
      <lanes>
         <lane id=":A2_10_0" depart="0" maxspeed="13.90" length="0.10" shape="1.65,395.25 0.88,396.40"/>
      </lanes>
   </edge>
   <edge id=":A2_15" function="internal">
      <lanes>
         <lane id=":A2_15_0" depart="0" maxspeed="13.90" length="4.72" shape="0.88,396.40 0.83,396.49 0.00,396.90 -0.82,396.49 -1.65,395.25"/>
      </lanes>
   </edge>
   <edge id=":A3_0" function="internal">
      <lanes>
         <lane id=":A3_0_0" depart="0" maxspeed="13.90" length="9.50" shape="-4.95,604.75 -4.95,595.25"/>
      </lanes>
   </edge>
   <edge id=":A3_1" function="internal">
      <lanes>
         <lane id=":A3_1_0" depart="0" maxspeed="13.90" length="9.50" shape="-1.65,604.75 -1.65,595.25"/>
      </lanes>
   </edge>
   <edge id=":A3_2" function="internal">
      <lanes>
         <lane id=":A3_2_0" depart="0" maxspeed="12.50" length="6.51" shape="-1.65,604.75 -1.04,601.95 2.93,599.10"/>
      </lanes>
   </edge>
   <edge id=":A3_11" function="internal">
      <lanes>
         <lane id=":A3_11_0" depart="0" maxspeed="12.50" length="6.58" shape="2.93,599.10 3.81,598.75 8.05,598.35"/>
      </lanes>
   </edge>
   <edge id=":A3_3" function="internal">
      <lanes>
         <lane id=":A3_3_0" depart="0" maxspeed="13.90" length="0.10" shape="-1.65,604.75 -0.88,603.60"/>
      </lanes>
   </edge>
   <edge id=":A3_12" function="internal">
      <lanes>
         <lane id=":A3_12_0" depart="0" maxspeed="13.90" length="4.72" shape="-0.88,603.60 -0.83,603.51 -0.00,603.10 0.82,603.51 1.65,604.75"/>
      </lanes>
   </edge>
   <edge id=":A3_4" function="internal">
      <lanes>
         <lane id=":A3_4_0" depart="0" maxspeed="12.50" length="5.00" shape="8.05,601.65 6.69,601.84 5.73,602.42 5.14,603.39 4.95,604.75"/>
      </lanes>
   </edge>
   <edge id=":A3_5" function="internal">
      <lanes>
         <lane id=":A3_5_0" depart="0" maxspeed="12.50" length="3.11" shape="8.05,601.65 6.91,601.54"/>
      </lanes>
   </edge>
   <edge id=":A3_13" function="internal">
      <lanes>
         <lane id=":A3_13_0" depart="0" maxspeed="12.50" length="9.98" shape="6.91,601.54 3.81,601.25 0.77,600.05 -1.04,598.05 -1.65,595.25"/>
      </lanes>
   </edge>
   <edge id=":A3_6" function="internal">
      <lanes>
         <lane id=":A3_6_0" depart="0" maxspeed="11.10" length="0.10" shape="8.05,601.65 6.90,600.88"/>
      </lanes>
   </edge>
   <edge id=":A3_14" function="internal">
      <lanes>
         <lane id=":A3_14_0" depart="0" maxspeed="11.10" length="4.72" shape="6.90,600.88 6.81,600.83 6.40,600.00 6.81,599.18 8.05,598.35"/>
      </lanes>
   </edge>
   <edge id=":A3_7" function="internal">
      <lanes>
         <lane id=":A3_7_0" depart="0" maxspeed="12.50" length="5.00" shape="4.95,595.25 5.14,596.61 5.73,597.58 6.69,598.16 8.05,598.35"/>
      </lanes>
   </edge>
   <edge id=":A3_8" function="internal">
      <lanes>
         <lane id=":A3_8_0" depart="0" maxspeed="13.90" length="9.50" shape="4.95,595.25 4.95,604.75"/>
      </lanes>
   </edge>
   <edge id=":A3_9" function="internal">
      <lanes>
         <lane id=":A3_9_0" depart="0" maxspeed="13.90" length="9.50" shape="1.65,595.25 1.65,604.75"/>
      </lanes>
   </edge>
   <edge id=":A3_10" function="internal">
      <lanes>
         <lane id=":A3_10_0" depart="0" maxspeed="13.90" length="0.10" shape="1.65,595.25 0.88,596.40"/>
      </lanes>
   </edge>
   <edge id=":A3_15" function="internal">
      <lanes>
         <lane id=":A3_15_0" depart="0" maxspeed="13.90" length="4.72" shape="0.88,596.40 0.83,596.49 0.00,596.90 -0.82,596.49 -1.65,595.25"/>
      </lanes>
   </edge>
   <edge id=":A4_0" function="internal">
      <lanes>
         <lane id=":A4_0_0" depart="0" maxspeed="13.90" length="16.10" shape="-4.95,808.05 -4.95,803.27 -4.95,800.00 -4.95,796.73 -4.95,791.95"/>
      </lanes>
   </edge>
   <edge id=":A4_1" function="internal">
      <lanes>
         <lane id=":A4_1_0" depart="0" maxspeed="13.90" length="16.10" shape="-1.65,808.05 -1.65,803.27 -1.65,800.00 -1.65,796.73 -1.65,791.95"/>
      </lanes>
   </edge>
   <edge id=":A4_2" function="internal">
      <lanes>
         <lane id=":A4_2_0" depart="0" maxspeed="13.90" length="8.84" shape="-1.65,808.05 -1.04,803.81 2.93,799.48"/>
      </lanes>
   </edge>
   <edge id=":A4_11" function="internal">
      <lanes>
         <lane id=":A4_11_0" depart="0" maxspeed="13.90" length="6.80" shape="2.93,799.48 3.81,798.96 8.05,798.35"/>
      </lanes>
   </edge>
   <edge id=":A4_3" function="internal">
      <lanes>
         <lane id=":A4_3_0" depart="0" maxspeed="13.90" length="0.10" shape="-1.65,808.05 -0.88,806.90"/>
      </lanes>
   </edge>
   <edge id=":A4_12" function="internal">
      <lanes>
         <lane id=":A4_12_0" depart="0" maxspeed="13.90" length="4.72" shape="-0.88,806.90 -0.83,806.81 -0.00,806.40 0.82,806.81 1.65,808.05"/>
      </lanes>
   </edge>
   <edge id=":A4_4" function="internal">
      <lanes>
         <lane id=":A4_4_0" depart="0" maxspeed="13.90" length="5.00" shape="8.05,804.95 6.69,805.14 5.73,805.73 5.14,806.69 4.95,808.05"/>
      </lanes>
   </edge>
   <edge id=":A4_5" function="internal">
      <lanes>
         <lane id=":A4_5_0" depart="0" maxspeed="13.90" length="3.13" shape="8.05,801.65 6.91,801.49"/>
      </lanes>
   </edge>
   <edge id=":A4_13" function="internal">
      <lanes>
         <lane id=":A4_13_0" depart="0" maxspeed="13.90" length="12.51" shape="6.91,801.49 3.81,801.04 0.77,799.22 -1.04,796.19 -1.65,791.95"/>
      </lanes>
   </edge>
   <edge id=":A4_6" function="internal">
      <lanes>
         <lane id=":A4_6_0" depart="0" maxspeed="13.90" length="0.10" shape="8.05,801.65 6.90,800.88"/>
      </lanes>
   </edge>
   <edge id=":A4_14" function="internal">
      <lanes>
         <lane id=":A4_14_0" depart="0" maxspeed="13.90" length="4.72" shape="6.90,800.88 6.81,800.83 6.40,800.00 6.81,799.18 8.05,798.35"/>
      </lanes>
   </edge>
   <edge id=":A4_7" function="internal">
      <lanes>
         <lane id=":A4_7_0" depart="0" maxspeed="13.90" length="5.00" shape="4.95,791.95 5.14,793.31 5.73,794.28 6.69,794.86 8.05,795.05"/>
      </lanes>
   </edge>
   <edge id=":A4_8" function="internal">
      <lanes>
         <lane id=":A4_8_0" depart="0" maxspeed="13.90" length="16.10" shape="4.95,791.95 4.95,796.73 4.95,800.00 4.95,803.27 4.95,808.05"/>
      </lanes>
   </edge>
   <edge id=":A4_9" function="internal">
      <lanes>
         <lane id=":A4_9_0" depart="0" maxspeed="13.90" length="16.10" shape="1.65,791.95 1.65,796.73 1.65,800.00 1.65,803.27 1.65,808.05"/>
      </lanes>
   </edge>
   <edge id=":A4_10" function="internal">
      <lanes>
         <lane id=":A4_10_0" depart="0" maxspeed="13.90" length="0.10" shape="1.65,791.95 0.88,793.10"/>
      </lanes>
   </edge>
   <edge id=":A4_15" function="internal">
      <lanes>
         <lane id=":A4_15_0" depart="0" maxspeed="13.90" length="4.72" shape="0.88,793.10 0.83,793.19 0.00,793.60 -0.82,793.19 -1.65,791.95"/>
      </lanes>
   </edge>
   <edge id=":A5_0" function="internal">
      <lanes>
         <lane id=":A5_0_0" depart="0" maxspeed="13.90" length="9.50" shape="-4.95,1004.75 -4.95,995.25"/>
      </lanes>
   </edge>
   <edge id=":A5_1" function="internal">
      <lanes>
         <lane id=":A5_1_0" depart="0" maxspeed="13.90" length="9.50" shape="-1.65,1004.75 -1.65,995.25"/>
      </lanes>
   </edge>
   <edge id=":A5_2" function="internal">
      <lanes>
         <lane id=":A5_2_0" depart="0" maxspeed="12.50" length="6.51" shape="-1.65,1004.75 -1.04,1001.95 2.93,999.10"/>
      </lanes>
   </edge>
   <edge id=":A5_11" function="internal">
      <lanes>
         <lane id=":A5_11_0" depart="0" maxspeed="12.50" length="6.58" shape="2.93,999.10 3.81,998.75 8.05,998.35"/>
      </lanes>
   </edge>
   <edge id=":A5_3" function="internal">
      <lanes>
         <lane id=":A5_3_0" depart="0" maxspeed="13.90" length="0.10" shape="-1.65,1004.75 -0.88,1003.60"/>
      </lanes>
   </edge>
   <edge id=":A5_12" function="internal">
      <lanes>
         <lane id=":A5_12_0" depart="0" maxspeed="13.90" length="4.72" shape="-0.88,1003.60 -0.83,1003.51 -0.00,1003.10 0.82,1003.51 1.65,1004.75"/>
      </lanes>
   </edge>
   <edge id=":A5_4" function="internal">
      <lanes>
         <lane id=":A5_4_0" depart="0" maxspeed="12.50" length="5.00" shape="8.05,1001.65 6.69,1001.84 5.73,1002.43 5.14,1003.39 4.95,1004.75"/>
      </lanes>
   </edge>
   <edge id=":A5_5" function="internal">
      <lanes>
         <lane id=":A5_5_0" depart="0" maxspeed="12.50" length="3.11" shape="8.05,1001.65 6.91,1001.54"/>
      </lanes>
   </edge>
   <edge id=":A5_13" function="internal">
      <lanes>
         <lane id=":A5_13_0" depart="0" maxspeed="12.50" length="9.98" shape="6.91,1001.54 3.81,1001.25 0.77,1000.05 -1.04,998.05 -1.65,995.25"/>
      </lanes>
   </edge>
   <edge id=":A5_6" function="internal">
      <lanes>
         <lane id=":A5_6_0" depart="0" maxspeed="11.10" length="0.10" shape="8.05,1001.65 6.90,1000.88"/>
      </lanes>
   </edge>
   <edge id=":A5_14" function="internal">
      <lanes>
         <lane id=":A5_14_0" depart="0" maxspeed="11.10" length="4.72" shape="6.90,1000.88 6.81,1000.83 6.40,1000.00 6.81,999.18 8.05,998.35"/>
      </lanes>
   </edge>
   <edge id=":A5_7" function="internal">
      <lanes>
         <lane id=":A5_7_0" depart="0" maxspeed="12.50" length="5.00" shape="4.95,995.25 5.14,996.61 5.73,997.57 6.69,998.16 8.05,998.35"/>
      </lanes>
   </edge>
   <edge id=":A5_8" function="internal">
      <lanes>
         <lane id=":A5_8_0" depart="0" maxspeed="13.90" length="9.50" shape="4.95,995.25 4.95,1004.75"/>
      </lanes>
   </edge>
   <edge id=":A5_9" function="internal">
      <lanes>
         <lane id=":A5_9_0" depart="0" maxspeed="13.90" length="9.50" shape="1.65,995.25 1.65,1004.75"/>
      </lanes>
   </edge>
   <edge id=":A5_10" function="internal">
      <lanes>
         <lane id=":A5_10_0" depart="0" maxspeed="13.90" length="0.10" shape="1.65,995.25 0.88,996.40"/>
      </lanes>
   </edge>
   <edge id=":A5_15" function="internal">
      <lanes>
         <lane id=":A5_15_0" depart="0" maxspeed="13.90" length="4.72" shape="0.88,996.40 0.83,996.49 0.00,996.90 -0.82,996.49 -1.65,995.25"/>
      </lanes>
   </edge>
   <edge id=":A6_0" function="internal">
      <lanes>
         <lane id=":A6_0_0" depart="0" maxspeed="13.90" length="9.50" shape="-4.95,1204.75 -4.95,1195.25"/>
      </lanes>
   </edge>
   <edge id=":A6_1" function="internal">
      <lanes>
         <lane id=":A6_1_0" depart="0" maxspeed="13.90" length="9.50" shape="-1.65,1204.75 -1.65,1195.25"/>
      </lanes>
   </edge>
   <edge id=":A6_2" function="internal">
      <lanes>
         <lane id=":A6_2_0" depart="0" maxspeed="12.50" length="6.51" shape="-1.65,1204.75 -1.04,1201.95 2.93,1199.10"/>
      </lanes>
   </edge>
   <edge id=":A6_11" function="internal">
      <lanes>
         <lane id=":A6_11_0" depart="0" maxspeed="12.50" length="6.58" shape="2.93,1199.10 3.81,1198.75 8.05,1198.35"/>
      </lanes>
   </edge>
   <edge id=":A6_3" function="internal">
      <lanes>
         <lane id=":A6_3_0" depart="0" maxspeed="13.90" length="0.10" shape="-1.65,1204.75 -0.88,1203.60"/>
      </lanes>
   </edge>
   <edge id=":A6_12" function="internal">
      <lanes>
         <lane id=":A6_12_0" depart="0" maxspeed="13.90" length="4.72" shape="-0.88,1203.60 -0.83,1203.51 -0.00,1203.10 0.82,1203.51 1.65,1204.75"/>
      </lanes>
   </edge>
   <edge id=":A6_4" function="internal">
      <lanes>
         <lane id=":A6_4_0" depart="0" maxspeed="12.50" length="5.00" shape="8.05,1201.65 6.69,1201.84 5.73,1202.43 5.14,1203.39 4.95,1204.75"/>
      </lanes>
   </edge>
   <edge id=":A6_5" function="internal">
      <lanes>
         <lane id=":A6_5_0" depart="0" maxspeed="12.50" length="3.11" shape="8.05,1201.65 6.91,1201.54"/>
      </lanes>
   </edge>
   <edge id=":A6_13" function="internal">
      <lanes>
         <lane id=":A6_13_0" depart="0" maxspeed="12.50" length="9.98" shape="6.91,1201.54 3.81,1201.25 0.77,1200.05 -1.04,1198.05 -1.65,1195.25"/>
      </lanes>
   </edge>
   <edge id=":A6_6" function="internal">
      <lanes>
         <lane id=":A6_6_0" depart="0" maxspeed="11.10" length="0.10" shape="8.05,1201.65 6.90,1200.88"/>
      </lanes>
   </edge>
   <edge id=":A6_14" function="internal">
      <lanes>
         <lane id=":A6_14_0" depart="0" maxspeed="11.10" length="4.72" shape="6.90,1200.88 6.81,1200.83 6.40,1200.00 6.81,1199.18 8.05,1198.35"/>
      </lanes>
   </edge>
   <edge id=":A6_7" function="internal">
      <lanes>
         <lane id=":A6_7_0" depart="0" maxspeed="12.50" length="5.00" shape="4.95,1195.25 5.14,1196.61 5.73,1197.58 6.69,1198.16 8.05,1198.35"/>
      </lanes>
   </edge>
   <edge id=":A6_8" function="internal">
      <lanes>
         <lane id=":A6_8_0" depart="0" maxspeed="13.90" length="9.50" shape="4.95,1195.25 4.95,1204.75"/>
      </lanes>
   </edge>
   <edge id=":A6_9" function="internal">
      <lanes>
         <lane id=":A6_9_0" depart="0" maxspeed="13.90" length="9.50" shape="1.65,1195.25 1.65,1204.75"/>
      </lanes>
   </edge>
   <edge id=":A6_10" function="internal">
      <lanes>
         <lane id=":A6_10_0" depart="0" maxspeed="13.90" length="0.10" shape="1.65,1195.25 0.88,1196.40"/>
      </lanes>
   </edge>
   <edge id=":A6_15" function="internal">
      <lanes>
         <lane id=":A6_15_0" depart="0" maxspeed="13.90" length="4.72" shape="0.88,1196.40 0.83,1196.49 0.00,1196.90 -0.82,1196.49 -1.65,1195.25"/>
      </lanes>
   </edge>
   <edge id=":A7_0" function="internal">
      <lanes>
         <lane id=":A7_0_0" depart="0" maxspeed="13.90" length="9.50" shape="-4.95,1404.75 -4.95,1395.25"/>
      </lanes>
   </edge>
   <edge id=":A7_1" function="internal">
      <lanes>
         <lane id=":A7_1_0" depart="0" maxspeed="13.90" length="9.50" shape="-1.65,1404.75 -1.65,1395.25"/>
      </lanes>
   </edge>
   <edge id=":A7_2" function="internal">
      <lanes>
         <lane id=":A7_2_0" depart="0" maxspeed="12.50" length="6.51" shape="-1.65,1404.75 -1.04,1401.95 2.93,1399.10"/>
      </lanes>
   </edge>
   <edge id=":A7_11" function="internal">
      <lanes>
         <lane id=":A7_11_0" depart="0" maxspeed="12.50" length="6.58" shape="2.93,1399.10 3.81,1398.75 8.05,1398.35"/>
      </lanes>
   </edge>
   <edge id=":A7_3" function="internal">
      <lanes>
         <lane id=":A7_3_0" depart="0" maxspeed="13.90" length="0.10" shape="-1.65,1404.75 -0.88,1403.60"/>
      </lanes>
   </edge>
   <edge id=":A7_12" function="internal">
      <lanes>
         <lane id=":A7_12_0" depart="0" maxspeed="13.90" length="4.72" shape="-0.88,1403.60 -0.83,1403.51 -0.00,1403.10 0.82,1403.51 1.65,1404.75"/>
      </lanes>
   </edge>
   <edge id=":A7_4" function="internal">
      <lanes>
         <lane id=":A7_4_0" depart="0" maxspeed="12.50" length="5.00" shape="8.05,1401.65 6.69,1401.84 5.73,1402.43 5.14,1403.39 4.95,1404.75"/>
      </lanes>
   </edge>
   <edge id=":A7_5" function="internal">
      <lanes>
         <lane id=":A7_5_0" depart="0" maxspeed="12.50" length="3.11" shape="8.05,1401.65 6.91,1401.54"/>
      </lanes>
   </edge>
   <edge id=":A7_13" function="internal">
      <lanes>
         <lane id=":A7_13_0" depart="0" maxspeed="12.50" length="9.98" shape="6.91,1401.54 3.81,1401.25 0.77,1400.05 -1.04,1398.05 -1.65,1395.25"/>
      </lanes>
   </edge>
   <edge id=":A7_6" function="internal">
      <lanes>
         <lane id=":A7_6_0" depart="0" maxspeed="11.10" length="0.10" shape="8.05,1401.65 6.90,1400.88"/>
      </lanes>
   </edge>
   <edge id=":A7_14" function="internal">
      <lanes>
         <lane id=":A7_14_0" depart="0" maxspeed="11.10" length="4.72" shape="6.90,1400.88 6.81,1400.83 6.40,1400.00 6.81,1399.18 8.05,1398.35"/>
      </lanes>
   </edge>
   <edge id=":A7_7" function="internal">
      <lanes>
         <lane id=":A7_7_0" depart="0" maxspeed="12.50" length="5.00" shape="4.95,1395.25 5.14,1396.61 5.73,1397.58 6.69,1398.16 8.05,1398.35"/>
      </lanes>
   </edge>
   <edge id=":A7_8" function="internal">
      <lanes>
         <lane id=":A7_8_0" depart="0" maxspeed="13.90" length="9.50" shape="4.95,1395.25 4.95,1404.75"/>
      </lanes>
   </edge>
   <edge id=":A7_9" function="internal">
      <lanes>
         <lane id=":A7_9_0" depart="0" maxspeed="13.90" length="9.50" shape="1.65,1395.25 1.65,1404.75"/>
      </lanes>
   </edge>
   <edge id=":A7_10" function="internal">
      <lanes>
         <lane id=":A7_10_0" depart="0" maxspeed="13.90" length="0.10" shape="1.65,1395.25 0.88,1396.40"/>
      </lanes>
   </edge>
   <edge id=":A7_15" function="internal">
      <lanes>
         <lane id=":A7_15_0" depart="0" maxspeed="13.90" length="4.72" shape="0.88,1396.40 0.83,1396.49 0.00,1396.90 -0.82,1396.49 -1.65,1395.25"/>
      </lanes>
   </edge>
   <edge id=":A8_0" function="internal">
      <lanes>
         <lane id=":A8_0_0" depart="0" maxspeed="13.90" length="18.55" shape="6.55,1604.95 1.52,1604.23 -2.08,1602.08 -4.23,1598.48 -4.95,1593.45"/>
      </lanes>
   </edge>
   <edge id=":A8_1" function="internal">
      <lanes>
         <lane id=":A8_1_0" depart="0" maxspeed="13.90" length="13.22" shape="6.55,1601.65 2.96,1601.14 0.40,1599.60 -1.14,1597.04 -1.65,1593.45"/>
      </lanes>
   </edge>
   <edge id=":A8_2" function="internal">
      <lanes>
         <lane id=":A8_2_0" depart="0" maxspeed="13.90" length="0.10" shape="6.55,1601.65 5.40,1600.88"/>
      </lanes>
   </edge>
   <edge id=":A8_6" function="internal">
      <lanes>
         <lane id=":A8_6_0" depart="0" maxspeed="13.90" length="4.72" shape="5.40,1600.88 5.31,1600.83 4.90,1600.00 5.31,1599.18 6.55,1598.35"/>
      </lanes>
   </edge>
   <edge id=":A8_3" function="internal">
      <lanes>
         <lane id=":A8_3_0" depart="0" maxspeed="13.90" length="2.58" shape="4.95,1593.45 5.05,1594.15 5.35,1594.65 5.85,1594.95 6.55,1595.05"/>
      </lanes>
   </edge>
   <edge id=":A8_4" function="internal">
      <lanes>
         <lane id=":A8_4_0" depart="0" maxspeed="13.90" length="7.90" shape="1.65,1593.45 1.96,1595.59 2.88,1597.13 4.41,1598.04 6.55,1598.35"/>
      </lanes>
   </edge>
   <edge id=":A8_5" function="internal">
      <lanes>
         <lane id=":A8_5_0" depart="0" maxspeed="13.90" length="0.10" shape="1.65,1593.45 0.88,1594.60"/>
      </lanes>
   </edge>
   <edge id=":A8_7" function="internal">
      <lanes>
         <lane id=":A8_7_0" depart="0" maxspeed="13.90" length="4.72" shape="0.88,1594.60 0.83,1594.69 0.00,1595.10 -0.82,1594.69 -1.65,1593.45"/>
      </lanes>
   </edge>
   <edge id=":B0_0" function="internal">
      <lanes>
         <lane id=":B0_0_0" depart="0" maxspeed="12.50" length="5.00" shape="198.35,8.05 198.16,6.69 197.57,5.73 196.61,5.14 195.25,4.95"/>
      </lanes>
   </edge>
   <edge id=":B0_1" function="internal">
      <lanes>
         <lane id=":B0_1_0" depart="0" maxspeed="12.50" length="3.11" shape="198.35,8.05 198.46,6.91"/>
      </lanes>
   </edge>
   <edge id=":B0_11" function="internal">
      <lanes>
         <lane id=":B0_11_0" depart="0" maxspeed="12.50" length="9.98" shape="198.46,6.91 198.75,3.81 199.95,0.78 201.95,-1.04 204.75,-1.65"/>
      </lanes>
   </edge>
   <edge id=":B0_2" function="internal">
      <lanes>
         <lane id=":B0_2_0" depart="0" maxspeed="11.10" length="0.10" shape="198.35,8.05 199.12,6.90"/>
      </lanes>
   </edge>
   <edge id=":B0_12" function="internal">
      <lanes>
         <lane id=":B0_12_0" depart="0" maxspeed="11.10" length="4.72" shape="199.12,6.90 199.17,6.81 200.00,6.40 200.82,6.81 201.65,8.05"/>
      </lanes>
   </edge>
   <edge id=":B0_3" function="internal">
      <lanes>
         <lane id=":B0_3_0" depart="0" maxspeed="12.50" length="5.00" shape="204.75,4.95 203.39,5.14 202.43,5.72 201.84,6.69 201.65,8.05"/>
      </lanes>
   </edge>
   <edge id=":B0_4" function="internal">
      <lanes>
         <lane id=":B0_4_0" depart="0" maxspeed="13.90" length="9.50" shape="204.75,4.95 195.25,4.95"/>
      </lanes>
   </edge>
   <edge id=":B0_5" function="internal">
      <lanes>
         <lane id=":B0_5_0" depart="0" maxspeed="13.90" length="9.50" shape="204.75,1.65 195.25,1.65"/>
      </lanes>
   </edge>
   <edge id=":B0_6" function="internal">
      <lanes>
         <lane id=":B0_6_0" depart="0" maxspeed="13.90" length="0.10" shape="204.75,1.65 203.60,0.88"/>
      </lanes>
   </edge>
   <edge id=":B0_13" function="internal">
      <lanes>
         <lane id=":B0_13_0" depart="0" maxspeed="13.90" length="4.72" shape="203.60,0.88 203.51,0.83 203.10,0.00 203.51,-0.82 204.75,-1.65"/>
      </lanes>
   </edge>
   <edge id=":B0_7" function="internal">
      <lanes>
         <lane id=":B0_7_0" depart="0" maxspeed="13.90" length="9.50" shape="195.25,-4.95 204.75,-4.95"/>
      </lanes>
   </edge>
   <edge id=":B0_8" function="internal">
      <lanes>
         <lane id=":B0_8_0" depart="0" maxspeed="13.90" length="9.50" shape="195.25,-1.65 204.75,-1.65"/>
      </lanes>
   </edge>
   <edge id=":B0_9" function="internal">
      <lanes>
         <lane id=":B0_9_0" depart="0" maxspeed="12.50" length="6.51" shape="195.25,-1.65 198.05,-1.04 200.90,2.93"/>
      </lanes>
   </edge>
   <edge id=":B0_14" function="internal">
      <lanes>
         <lane id=":B0_14_0" depart="0" maxspeed="12.50" length="6.58" shape="200.90,2.93 201.25,3.81 201.65,8.05"/>
      </lanes>
   </edge>
   <edge id=":B0_10" function="internal">
      <lanes>