<?xml version="1.0"?>

<!-- generated on 03/10/11 14:55:30 by SUMO netconvert Version 0.12.2
<?xml version="1.0" encoding="iso-8859-1"?>

<configuration xmlns:xsi="http://www.w3.org/2001/XMLSchema-instance" xsi:noNamespaceSchemaLocation="http://sumo.sf.net/xsd/netconvertConfiguration.xsd">

    <input>
        <xml-node-files value="source/manhattan.nod.xml"/>
        <xml-edge-files value="source/manhattan.edg.xml"/>
        <xml-type-files value="default.typ.xml"/>
    </input>

    <output>
        <output-file value="manhattan.net.xml"/>
    </output>

    <report>
        <verbose value="true"/>
    </report>

</configuration>
-->

<net>

   <location netOffset="0.00,0.00" convBoundary="0.00,0.00,3000.00,3000.00" origBoundary="0.00,0.00,3000.00,3000.00" projParameter="!"/>

   <edge id=":A0_0" function="internal">
      <lanes>
         <lane id=":A0_0_0" depart="0" maxspeed="13.90" length="18.55" shape="-4.95,6.55 -4.23,1.52 -2.08,-2.07 1.52,-4.23 6.55,-4.95"/>
      </lanes>
   </edge>
   <edge id=":A0_1" function="internal">
      <lanes>
         <lane id=":A0_1_0" depart="0" maxspeed="13.90" length="13.22" shape="-1.65,6.55 -1.14,2.96 0.40,0.40 2.96,-1.14 6.55,-1.65"/>
      </lanes>
   </edge>
   <edge id=":A0_2" function="internal">
      <lanes>
         <lane id=":A0_2_0" depart="0" maxspeed="13.90" length="0.10" shape="-1.65,6.55 -0.88,5.40"/>
      </lanes>
   </edge>
   <edge id=":A0_6" function="internal">
      <lanes>
         <lane id=":A0_6_0" depart="0" maxspeed="13.90" length="4.72" shape="-0.88,5.40 -0.83,5.31 -0.00,4.90 0.82,5.31 1.65,6.55"/>
      </lanes>
   </edge>
   <edge id=":A0_3" function="internal">
      <lanes>
         <lane id=":A0_3_0" depart="0" maxspeed="13.90" length="2.58" shape="6.55,4.95 5.85,5.05 5.35,5.35 5.05,5.85 4.95,6.55"/>
      </lanes>
   </edge>
   <edge id=":A0_4" function="internal">
      <lanes>
         <lane id=":A0_4_0" depart="0" maxspeed="13.90" length="7.90" shape="6.55,1.65 4.41,1.96 2.88,2.87 1.96,4.41 1.65,6.55"/>
      </lanes>
   </edge>
   <edge id=":A0_5" function="internal">
      <lanes>
         <lane id=":A0_5_0" depart="0" maxspeed="13.90" length="0.10" shape="6.55,1.65 5.40,0.88"/>
      </lanes>
   </edge>
   <edge id=":A0_7" function="internal">
      <lanes>
         <lane id=":A0_7_0" depart="0" maxspeed="13.90" length="4.72" shape="5.40,0.88 5.31,0.82 4.90,-0.00 5.31,-0.83 6.55,-1.65"/>
      </lanes>
   </edge>
   <edge id=":A1_0" function="internal">
      <lanes>
         <lane id=":A1_0_0" depart="0" maxspeed="13.90" length="9.50" shape="-4.95,254.75 -4.95,245.25"/>
      </lanes>
   </edge>
   <edge id=":A1_1" function="internal">
      <lanes>
         <lane id=":A1_1_0" depart="0" maxspeed="13.90" length="9.50" shape="-1.65,254.75 -1.65,245.25"/>
      </lanes>
   </edge>
   <edge id=":A1_2" function="internal">
      <lanes>
         <lane id=":A1_2_0" depart="0" maxspeed="12.50" length="6.51" shape="-1.65,254.75 -1.04,251.95 2.93,249.10"/>
      </lanes>
   </edge>
   <edge id=":A1_11" function="internal">
      <lanes>
         <lane id=":A1_11_0" depart="0" maxspeed="12.50" length="6.58" shape="2.93,249.10 3.81,248.75 8.05,248.35"/>
      </lanes>
   </edge>
   <edge id=":A1_3" function="internal">
      <lanes>
         <lane id=":A1_3_0" depart="0" maxspeed="13.90" length="0.10" shape="-1.65,254.75 -0.88,253.60"/>
      </lanes>
   </edge>
   <edge id=":A1_12" function="internal">
      <lanes>
         <lane id=":A1_12_0" depart="0" maxspeed="13.90" length="4.72" shape="-0.88,253.60 -0.83,253.51 -0.00,253.10 0.82,253.51 1.65,254.75"/>
      </lanes>
   </edge>
   <edge id=":A1_4" function="internal">
      <lanes>
         <lane id=":A1_4_0" depart="0" maxspeed="12.50" length="5.00" shape="8.05,251.65 6.69,251.84 5.73,252.43 5.14,253.39 4.95,254.75"/>
      </lanes>
   </edge>
   <edge id=":A1_5" function="internal">
      <lanes>
         <lane id=":A1_5_0" depart="0" maxspeed="12.50" length="3.11" shape="8.05,251.65 6.91,251.54"/>
      </lanes>
   </edge>
   <edge id=":A1_13" function="internal">
      <lanes>
         <lane id=":A1_13_0" depart="0" maxspeed="12.50" length="9.98" shape="6.91,251.54 3.81,251.25 0.77,250.05 -1.04,248.05 -1.65,245.25"/>
      </lanes>
   </edge>
   <edge id=":A1_6" function="internal">
      <lanes>
         <lane id=":A1_6_0" depart="0" maxspeed="11.10" length="0.10" shape="8.05,251.65 6.90,250.88"/>
      </lanes>
   </edge>
   <edge id=":A1_14" function="internal">
      <lanes>
         <lane id=":A1_14_0" depart="0" maxspeed="11.10" length="4.72" shape="6.90,250.88 6.81,250.83 6.40,250.00 6.81,249.18 8.05,248.35"/>
      </lanes>
   </edge>
   <edge id=":A1_7" function="internal">
      <lanes>
         <lane id=":A1_7_0" depart="0" maxspeed="12.50" length="5.00" shape="4.95,245.25 5.14,246.61 5.73,247.58 6.69,248.16 8.05,248.35"/>
      </lanes>
   </edge>
   <edge id=":A1_8" function="internal">
      <lanes>
         <lane id=":A1_8_0" depart="0" maxspeed="13.90" length="9.50" shape="4.95,245.25 4.95,254.75"/>
      </lanes>
   </edge>
   <edge id=":A1_9" function="internal">
      <lanes>
         <lane id=":A1_9_0" depart="0" maxspeed="13.90" length="9.50" shape="1.65,245.25 1.65,254.75"/>
      </lanes>
   </edge>
   <edge id=":A1_10" function="internal">
      <lanes>
         <lane id=":A1_10_0" depart="0" maxspeed="13.90" length="0.10" shape="1.65,245.25 0.88,246.40"/>
      </lanes>
   </edge>
   <edge id=":A1_15" function="internal">
      <lanes>
         <lane id=":A1_15_0" depart="0" maxspeed="13.90" length="4.72" shape="0.88,246.40 0.83,246.49 0.00,246.90 -0.82,246.49 -1.65,245.25"/>
      </lanes>
   </edge>
   <edge id=":A10_0" function="internal">
      <lanes>
         <lane id=":A10_0_0" depart="0" maxspeed="13.90" length="9.50" shape="-4.95,2504.75 -4.95,2495.25"/>
      </lanes>
   </edge>
   <edge id=":A10_1" function="internal">
      <lanes>
         <lane id=":A10_1_0" depart="0" maxspeed="13.90" length="9.50" shape="-1.65,2504.75 -1.65,2495.25"/>
      </lanes>
   </edge>
   <edge id=":A10_2" function="internal">
      <lanes>
         <lane id=":A10_2_0" depart="0" maxspeed="12.50" length="6.51" shape="-1.65,2504.75 -1.04,2501.95 2.93,2499.10"/>
      </lanes>
   </edge>
   <edge id=":A10_11" function="internal">
      <lanes>
         <lane id=":A10_11_0" depart="0" maxspeed="12.50" length="6.58" shape="2.93,2499.10 3.81,2498.75 8.05,2498.35"/>
      </lanes>
   </edge>
   <edge id=":A10_3" function="internal">
      <lanes>
         <lane id=":A10_3_0" depart="0" maxspeed="13.90" length="0.10" shape="-1.65,2504.75 -0.88,2503.60"/>
      </lanes>
   </edge>
   <edge id=":A10_12" function="internal">
      <lanes>
         <lane id=":A10_12_0" depart="0" maxspeed="13.90" length="4.72" shape="-0.88,2503.60 -0.83,2503.51 -0.00,2503.10 0.82,2503.51 1.65,2504.75"/>
      </lanes>
   </edge>
   <edge id=":A10_4" function="internal">
      <lanes>
         <lane id=":A10_4_0" depart="0" maxspeed="12.50" length="5.00" shape="8.05,2501.65 6.69,2501.84 5.73,2502.43 5.14,2503.39 4.95,2504.75"/>
      </lanes>
   </edge>
   <edge id=":A10_5" function="internal">
      <lanes>
         <lane id=":A10_5_0" depart="0" maxspeed="12.50" length="3.11" shape="8.05,2501.65 6.91,2501.54"/>
      </lanes>
   </edge>
   <edge id=":A10_13" function="internal">
      <lanes>
         <lane id=":A10_13_0" depart="0" maxspeed="12.50" length="9.98" shape="6.91,2501.54 3.81,2501.25 0.77,2500.05 -1.04,2498.05 -1.65,2495.25"/>
      </lanes>
   </edge>
   <edge id=":A10_6" function="internal">
      <lanes>
         <lane id=":A10_6_0" depart="0" maxspeed="11.10" length="0.10" shape="8.05,2501.65 6.90,2500.88"/>
      </lanes>
   </edge>
   <edge id=":A10_14" function="internal">
      <lanes>
         <lane id=":A10_14_0" depart="0" maxspeed="11.10" length="4.72" shape="6.90,2500.88 6.81,2500.83 6.40,2500.00 6.81,2499.18 8.05,2498.35"/>
      </lanes>
   </edge>
   <edge id=":A10_7" function="internal">
      <lanes>
         <lane id=":A10_7_0" depart="0" maxspeed="12.50" length="5.00" shape="4.95,2495.25 5.14,2496.61 5.73,2497.57 6.69,2498.16 8.05,2498.35"/>
      </lanes>
   </edge>
   <edge id=":A10_8" function="internal">
      <lanes>
         <lane id=":A10_8_0" depart="0" maxspeed="13.90" length="9.50" shape="4.95,2495.25 4.95,2504.75"/>
      </lanes>
   </edge>
   <edge id=":A10_9" function="internal">
      <lanes>
         <lane id=":A10_9_0" depart="0" maxspeed="13.90" length="9.50" shape="1.65,2495.25 1.65,2504.75"/>
      </lanes>
   </edge>
   <edge id=":A10_10" function="internal">
      <lanes>
         <lane id=":A10_10_0" depart="0" maxspeed="13.90" length="0.10" shape="1.65,2495.25 0.88,2496.40"/>
      </lanes>
   </edge>
   <edge id=":A10_15" function="internal">
      <lanes>
         <lane id=":A10_15_0" depart="0" maxspeed="13.90" length="4.72" shape="0.88,2496.40 0.83,2496.49 0.00,2496.90 -0.82,2496.49 -1.65,2495.25"/>
      </lanes>
   </edge>
   <edge id=":A11_0" function="internal">
      <lanes>
         <lane id=":A11_0_0" depart="0" maxspeed="13.90" length="9.50" shape="-4.95,2754.75 -4.95,2745.25"/>
      </lanes>
   </edge>
   <edge id=":A11_1" function="internal">
      <lanes>
         <lane id=":A11_1_0" depart="0" maxspeed="13.90" length="9.50" shape="-1.65,2754.75 -1.65,2745.25"/>
      </lanes>
   </edge>
   <edge id=":A11_2" function="internal">
      <lanes>
         <lane id=":A11_2_0" depart="0" maxspeed="12.50" length="6.51" shape="-1.65,2754.75 -1.04,2751.95 2.93,2749.10"/>
      </lanes>
   </edge>
   <edge id=":A11_11" function="internal">
      <lanes>
         <lane id=":A11_11_0" depart="0" maxspeed="12.50" length="6.58" shape="2.93,2749.10 3.81,2748.75 8.05,2748.35"/>
      </lanes>
   </edge>
   <edge id=":A11_3" function="internal">
      <lanes>
         <lane id=":A11_3_0" depart="0" maxspeed="13.90" length="0.10" shape="-1.65,2754.75 -0.88,2753.60"/>
      </lanes>
   </edge>
   <edge id=":A11_12" function="internal">
      <lanes>
         <lane id=":A11_12_0" depart="0" maxspeed="13.90" length="4.72" shape="-0.88,2753.60 -0.83,2753.51 -0.00,2753.10 0.82,2753.51 1.65,2754.75"/>
      </lanes>
   </edge>
   <edge id=":A11_4" function="internal">
      <lanes>
         <lane id=":A11_4_0" depart="0" maxspeed="12.50" length="5.00" shape="8.05,2751.65 6.69,2751.84 5.73,2752.43 5.14,2753.39 4.95,2754.75"/>
      </lanes>
   </edge>
   <edge id=":A11_5" function="internal">
      <lanes>
         <lane id=":A11_5_0" depart="0" maxspeed="12.50" length="3.11" shape="8.05,2751.65 6.91,2751.54"/>
      </lanes>
   </edge>
   <edge id=":A11_13" function="internal">
      <lanes>
         <lane id=":A11_13_0" depart="0" maxspeed="12.50" length="9.98" shape="6.91,2751.54 3.81,2751.25 0.77,2750.05 -1.04,2748.05 -1.65,2745.25"/>
      </lanes>
   </edge>
   <edge id=":A11_6" function="internal">
      <lanes>
         <lane id=":A11_6_0" depart="0" maxspeed="11.10" length="0.10" shape="8.05,2751.65 6.90,2750.88"/>
      </lanes>
   </edge>
   <edge id=":A11_14" function="internal">
      <lanes>
         <lane id=":A11_14_0" depart="0" maxspeed="11.10" length="4.72" shape="6.90,2750.88 6.81,2750.83 6.40,2750.00 6.81,2749.18 8.05,2748.35"/>
      </lanes>
   </edge>
   <edge id=":A11_7" function="internal">
      <lanes>
         <lane id=":A11_7_0" depart="0" maxspeed="12.50" length="5.00" shape="4.95,2745.25 5.14,2746.61 5.73,2747.58 6.69,2748.16 8.05,2748.35"/>
      </lanes>
   </edge>
   <edge id=":A11_8" function="internal">
      <lanes>
         <lane id=":A11_8_0" depart="0" maxspeed="13.90" length="9.50" shape="4.95,2745.25 4.95,2754.75"/>
      </lanes>
   </edge>
   <edge id=":A11_9" function="internal">
      <lanes>
         <lane id=":A11_9_0" depart="0" maxspeed="13.90" length="9.50" shape="1.65,2745.25 1.65,2754.75"/>
      </lanes>
   </edge>
   <edge id=":A11_10" function="internal">
      <lanes>
         <lane id=":A11_10_0" depart="0" maxspeed="13.90" length="0.10" shape="1.65,2745.25 0.88,2746.40"/>
      </lanes>
   </edge>
   <edge id=":A11_15" function="internal">
      <lanes>
         <lane id=":A11_15_0" depart="0" maxspeed="13.90" length="4.72" shape="0.88,2746.40 0.83,2746.49 0.00,2746.90 -0.82,2746.49 -1.65,2745.25"/>
      </lanes>
   </edge>
   <edge id=":A12_0" function="internal">
      <lanes>
         <lane id=":A12_0_0" depart="0" maxspeed="13.90" length="18.55" shape="6.55,3004.95 1.52,3004.23 -2.08,3002.08 -4.23,2998.48 -4.95,2993.45"/>
      </lanes>
   </edge>
   <edge id=":A12_1" function="internal">
      <lanes>
         <lane id=":A12_1_0" depart="0" maxspeed="13.90" length="13.22" shape="6.55,3001.65 2.96,3001.14 0.40,2999.60 -1.14,2997.04 -1.65,2993.45"/>
      </lanes>
   </edge>
   <edge id=":A12_2" function="internal">
      <lanes>
         <lane id=":A12_2_0" depart="0" maxspeed="13.90" length="0.10" shape="6.55,3001.65 5.40,3000.88"/>
      </lanes>
   </edge>
   <edge id=":A12_6" function="internal">
      <lanes>
         <lane id=":A12_6_0" depart="0" maxspeed="13.90" length="4.72" shape="5.40,3000.88 5.31,3000.83 4.90,3000.00 5.31,2999.18 6.55,2998.35"/>
      </lanes>
   </edge>
   <edge id=":A12_3" function="internal">
      <lanes>
         <lane id=":A12_3_0" depart="0" maxspeed="13.90" length="2.58" shape="4.95,2993.45 5.05,2994.15 5.35,2994.65 5.85,2994.95 6.55,2995.05"/>
      </lanes>
   </edge>
   <edge id=":A12_4" function="internal">
      <lanes>
         <lane id=":A12_4_0" depart="0" maxspeed="13.90" length="7.90" shape="1.65,2993.45 1.96,2995.59 2.88,2997.13 4.41,2998.04 6.55,2998.35"/>
      </lanes>
   </edge>
   <edge id=":A12_5" function="internal">
      <lanes>
         <lane id=":A12_5_0" depart="0" maxspeed="13.90" length="0.10" shape="1.65,2993.45 0.88,2994.60"/>
      </lanes>
   </edge>
   <edge id=":A12_7" function="internal">
      <lanes>
         <lane id=":A12_7_0" depart="0" maxspeed="13.90" length="4.72" shape="0.88,2994.60 0.83,2994.69 0.00,2995.10 -0.82,2994.69 -1.65,2993.45"/>
      </lanes>
   </edge>
   <edge id=":A2_0" function="internal">
      <lanes>
         <lane id=":A2_0_0" depart="0" maxspeed="13.90" length="9.50" shape="-4.95,504.75 -4.95,495.25"/>
      </lanes>
   </edge>
   <edge id=":A2_1" function="internal">
      <lanes>
         <lane id=":A2_1_0" depart="0" maxspeed="13.90" length="9.50" shape="-1.65,504.75 -1.65,495.25"/>
      </lanes>
   </edge>
   <edge id=":A2_2" function="internal">
      <lanes>
         <lane id=":A2_2_0" depart="0" maxspeed="12.50" length="6.51" shape="-1.65,504.75 -1.04,501.95 2.93,499.10"/>
      </lanes>
   </edge>
   <edge id=":A2_11" function="internal">
      <lanes>
         <lane id=":A2_11_0" depart="0" maxspeed="12.50" length="6.58" shape="2.93,499.10 3.81,498.75 8.05,498.35"/>
      </lanes>
   </edge>
   <edge id=":A2_3" function="internal">
      <lanes>
         <lane id=":A2_3_0" depart="0" maxspeed="13.90" length="0.10" shape="-1.65,504.75 -0.88,503.60"/>
      </lanes>
   </edge>
   <edge id=":A2_12" function="internal">
      <lanes>
         <lane id=":A2_12_0" depart="0" maxspeed="13.90" length="4.72" shape="-0.88,503.60 -0.83,503.51 -0.00,503.10 0.82,503.51 1.65,504.75"/>
      </lanes>
   </edge>
   <edge id=":A2_4" function="internal">
      <lanes>
         <lane id=":A2_4_0" depart="0" maxspeed="12.50" length="5.00" shape="8.05,501.65 6.69,501.84 5.73,502.43 5.14,503.39 4.95,504.75"/>
      </lanes>
   </edge>
   <edge id=":A2_5" function="internal">
      <lanes>
         <lane id=":A2_5_0" depart="0" maxspeed="12.50" length="3.11" shape="8.05,501.65 6.91,501.54"/>
      </lanes>
   </edge>
   <edge id=":A2_13" function="internal">
      <lanes>
         <lane id=":A2_13_0" depart="0" maxspeed="12.50" length="9.98" shape="6.91,501.54 3.81,501.25 0.77,500.05 -1.04,498.05 -1.65,495.25"/>
      </lanes>
   </edge>
   <edge id=":A2_6" function="internal">
      <lanes>
         <lane id=":A2_6_0" depart="0" maxspeed="11.10" length="0.10" shape="8.05,501.65 6.90,500.88"/>
      </lanes>
   </edge>
   <edge id=":A2_14" function="internal">
      <lanes>
         <lane id=":A2_14_0" depart="0" maxspeed="11.10" length="4.72" shape="6.90,500.88 6.81,500.83 6.40,500.00 6.81,499.18 8.05,498.35"/>
      </lanes>
   </edge>
   <edge id=":A2_7" function="internal">
      <lanes>
         <lane id=":A2_7_0" depart="0" maxspeed="12.50" length="5.00" shape="4.95,495.25 5.14,496.61 5.73,497.58 6.69,498.16 8.05,498.35"/>
      </lanes>
   </edge>
   <edge id=":A2_8" function="internal">
      <lanes>
         <lane id=":A2_8_0" depart="0" maxspeed="13.90" length="9.50" shape="4.95,495.25 4.95,504.75"/>
      </lanes>
   </edge>
   <edge id=":A2_9" function="internal">
      <lanes>
         <lane id=":A2_9_0" depart="0" maxspeed="13.90" length="9.50" shape="1.65,495.25 1.65,504.75"/>
      </lanes>
   </edge>
   <edge id=":A2_10" function="internal">
      <lanes>
         <lane id=":A2_10_0" depart="0" maxspeed="13.90" length="0.10" shape="1.65,495.25 0.88,496.40"/>
      </lanes>
   </edge>
   <edge id=":A2_15" function="internal">
      <lanes>
         <lane id=":A2_15_0" depart="0" maxspeed="13.90" length="4.72" shape="0.88,496.40 0.83,496.49 0.00,496.90 -0.82,496.49 -1.65,495.25"/>
      </lanes>
   </edge>
   <edge id=":A3_0" function="internal">
      <lanes>
         <lane id=":A3_0_0" depart="0" maxspeed="13.90" length="9.50" shape="-4.95,754.75 -4.95,745.25"/>
      </lanes>
   </edge>
   <edge id=":A3_1" function="internal">
      <lanes>
         <lane id=":A3_1_0" depart="0" maxspeed="13.90" length="9.50" shape="-1.65,754.75 -1.65,745.25"/>
      </lanes>
   </edge>
   <edge id=":A3_2" function="internal">
      <lanes>
         <lane id=":A3_2_0" depart="0" maxspeed="12.50" length="6.51" shape="-1.65,754.75 -1.04,751.95 2.93,749.10"/>
      </lanes>
   </edge>
   <edge id=":A3_11" function="internal">
      <lanes>
         <lane id=":A3_11_0" depart="0" maxspeed="12.50" length="6.58" shape="2.93,749.10 3.81,748.75 8.05,748.35"/>
      </lanes>
   </edge>
   <edge id=":A3_3" function="internal">
      <lanes>
         <lane id=":A3_3_0" depart="0" maxspeed="13.90" length="0.10" shape="-1.65,754.75 -0.88,753.60"/>
      </lanes>
   </edge>
   <edge id=":A3_12" function="internal">
      <lanes>
         <lane id=":A3_12_0" depart="0" maxspeed="13.90" length="4.72" shape="-0.88,753.60 -0.83,753.51 -0.00,753.10 0.82,753.51 1.65,754.75"/>
      </lanes>
   </edge>
   <edge id=":A3_4" function="internal">
      <lanes>
         <lane id=":A3_4_0" depart="0" maxspeed="12.50" length="5.00" shape="8.05,751.65 6.69,751.84 5.73,752.42 5.14,753.39 4.95,754.75"/>
      </lanes>
   </edge>
   <edge id=":A3_5" function="internal">
      <lanes>
         <lane id=":A3_5_0" depart="0" maxspeed="12.50" length="3.11" shape="8.05,751.65 6.91,751.54"/>
      </lanes>
   </edge>
   <edge id=":A3_13" function="internal">
      <lanes>
         <lane id=":A3_13_0" depart="0" maxspeed="12.50" length="9.98" shape="6.91,751.54 3.81,751.25 0.77,750.05 -1.04,748.05 -1.65,745.25"/>
      </lanes>
   </edge>
   <edge id=":A3_6" function="internal">
      <lanes>
         <lane id=":A3_6_0" depart="0" maxspeed="11.10" length="0.10" shape="8.05,751.65 6.90,750.88"/>
      </lanes>
   </edge>
   <edge id=":A3_14" function="internal">
      <lanes>
         <lane id=":A3_14_0" depart="0" maxspeed="11.10" length="4.72" shape="6.90,750.88 6.81,750.83 6.40,750.00 6.81,749.18 8.05,748.35"/>
      </lanes>
   </edge>
   <edge id=":A3_7" function="internal">
      <lanes>
         <lane id=":A3_7_0" depart="0" maxspeed="12.50" length="5.00" shape="4.95,745.25 5.14,746.61 5.73,747.57 6.69,748.16 8.05,748.35"/>
      </lanes>
   </edge>
   <edge id=":A3_8" function="internal">
      <lanes>
         <lane id=":A3_8_0" depart="0" maxspeed="13.90" length="9.50" shape="4.95,745.25 4.95,754.75"/>
      </lanes>
   </edge>
   <edge id=":A3_9" function="internal">
      <lanes>
         <lane id=":A3_9_0" depart="0" maxspeed="13.90" length="9.50" shape="1.65,745.25 1.65,754.75"/>
      </lanes>
   </edge>
   <edge id=":A3_10" function="internal">
      <lanes>
         <lane id=":A3_10_0" depart="0" maxspeed="13.90" length="0.10" shape="1.65,745.25 0.88,746.40"/>
      </lanes>
   </edge>
   <edge id=":A3_15" function="internal">
      <lanes>
         <lane id=":A3_15_0" depart="0" maxspeed="13.90" length="4.72" shape="0.88,746.40 0.83,746.49 0.00,746.90 -0.82,746.49 -1.65,745.25"/>
      </lanes>
   </edge>
   <edge id=":A4_0" function="internal">
      <lanes>
         <lane id=":A4_0_0" depart="0" maxspeed="13.90" length="16.10" shape="-4.95,1008.05 -4.95,1003.27 -4.95,1000.00 -4.95,996.73 -4.95,991.95"/>
      </lanes>
   </edge>
   <edge id=":A4_1" function="internal">
      <lanes>
         <lane id=":A4_1_0" depart="0" maxspeed="13.90" length="16.10" shape="-1.65,1008.05 -1.65,1003.27 -1.65,1000.00 -1.65,996.73 -1.65,991.95"/>
      </lanes>
   </edge>
   <edge id=":A4_2" function="internal">
      <lanes>
         <lane id=":A4_2_0" depart="0" maxspeed="13.90" length="8.84" shape="-1.65,1008.05 -1.04,1003.81 2.93,999.48"/>
      </lanes>
   </edge>
   <edge id=":A4_11" function="internal">
      <lanes>
         <lane id=":A4_11_0" depart="0" maxspeed="13.90" length="6.80" shape="2.93,999.48 3.81,998.96 8.05,998.35"/>
      </lanes>
   </edge>
   <edge id=":A4_3" function="internal">
      <lanes>
         <lane id=":A4_3_0" depart="0" maxspeed="13.90" length="0.10" shape="-1.65,1008.05 -0.88,1006.90"/>
      </lanes>
   </edge>
   <edge id=":A4_12" function="internal">
      <lanes>
         <lane id=":A4_12_0" depart="0" maxspeed="13.90" length="4.72" shape="-0.88,1006.90 -0.83,1006.81 -0.00,1006.40 0.82,1006.81 1.65,1008.05"/>
      </lanes>
   </edge>
   <edge id=":A4_4" function="internal">
      <lanes>
         <lane id=":A4_4_0" depart="0" maxspeed="13.90" length="5.00" shape="8.05,1004.95 6.69,1005.14 5.73,1005.73 5.14,1006.69 4.95,1008.05"/>
      </lanes>
   </edge>
   <edge id=":A4_5" function="internal">
      <lanes>
         <lane id=":A4_5_0" depart="0" maxspeed="13.90" length="3.13" shape="8.05,1001.65 6.91,1001.49"/>
      </lanes>
   </edge>
   <edge id=":A4_13" function="internal">
      <lanes>
         <lane id=":A4_13_0" depart="0" maxspeed="13.90" length="12.51" shape="6.91,1001.49 3.81,1001.04 0.77,999.23 -1.04,996.19 -1.65,991.95"/>
      </lanes>
   </edge>
   <edge id=":A4_6" function="internal">
      <lanes>
         <lane id=":A4_6_0" depart="0" maxspeed="13.90" length="0.10" shape="8.05,1001.65 6.90,1000.88"/>
      </lanes>
   </edge>
   <edge id=":A4_14" function="internal">
      <lanes>
         <lane id=":A4_14_0" depart="0" maxspeed="13.90" length="4.72" shape="6.90,1000.88 6.81,1000.83 6.40,1000.00 6.81,999.18 8.05,998.35"/>
      </lanes>
   </edge>
   <edge id=":A4_7" function="internal">
      <lanes>
         <lane id=":A4_7_0" depart="0" maxspeed="13.90" length="5.00" shape="4.95,991.95 5.14,993.31 5.73,994.28 6.69,994.86 8.05,995.05"/>
      </lanes>
   </edge>
   <edge id=":A4_8" function="internal">
      <lanes>
         <lane id=":A4_8_0" depart="0" maxspeed="13.90" length="16.10" shape="4.95,991.95 4.95,996.73 4.95,1000.00 4.95,1003.27 4.95,1008.05"/>
      </lanes>
   </edge>
   <edge id=":A4_9" function="internal">
      <lanes>
         <lane id=":A4_9_0" depart="0" maxspeed="13.90" length="16.10" shape="1.65,991.95 1.65,996.73 1.65,1000.00 1.65,1003.27 1.65,1008.05"/>
      </lanes>
   </edge>
   <edge id=":A4_10" function="internal">
      <lanes>
         <lane id=":A4_10_0" depart="0" maxspeed="13.90" length="0.10" shape="1.65,991.95 0.88,993.10"/>
      </lanes>
   </edge>
   <edge id=":A4_15" function="internal">
      <lanes>
         <lane id=":A4_15_0" depart="0" maxspeed="13.90" length="4.72" shape="0.88,993.10 0.83,993.19 0.00,993.60 -0.82,993.19 -1.65,991.95"/>
      </lanes>
   </edge>
   <edge id=":A5_0" function="internal">
      <lanes>
         <lane id=":A5_0_0" depart="0" maxspeed="13.90" length="9.50" shape="-4.95,1254.75 -4.95,1245.25"/>
      </lanes>
   </edge>
   <edge id=":A5_1" function="internal">
      <lanes>
         <lane id=":A5_1_0" depart="0" maxspeed="13.90" length="9.50" shape="-1.65,1254.75 -1.65,1245.25"/>
      </lanes>
   </edge>
   <edge id=":A5_2" function="internal">
      <lanes>
         <lane id=":A5_2_0" depart="0" maxspeed="12.50" length="6.51" shape="-1.65,1254.75 -1.04,1251.95 2.93,1249.10"/>
      </lanes>
   </edge>
   <edge id=":A5_11" function="internal">
      <lanes>
         <lane id=":A5_11_0" depart="0" maxspeed="12.50" length="6.58" shape="2.93,1249.10 3.81,1248.75 8.05,1248.35"/>
      </lanes>
   </edge>
   <edge id=":A5_3" function="internal">
      <lanes>
         <lane id=":A5_3_0" depart="0" maxspeed="13.90" length="0.10" shape="-1.65,1254.75 -0.88,1253.60"/>
      </lanes>
   </edge>
   <edge id=":A5_12" function="internal">
      <lanes>
         <lane id=":A5_12_0" depart="0" maxspeed="13.90" length="4.72" shape="-0.88,1253.60 -0.83,1253.51 -0.00,1253.10 0.82,1253.51 1.65,1254.75"/>
      </lanes>
   </edge>
   <edge id=":A5_4" function="internal">
      <lanes>
         <lane id=":A5_4_0" depart="0" maxspeed="12.50" length="5.00" shape="8.05,1251.65 6.69,1251.84 5.73,1252.43 5.14,1253.39 4.95,1254.75"/>
      </lanes>
   </edge>
   <edge id=":A5_5" function="internal">
      <lanes>
         <lane id=":A5_5_0" depart="0" maxspeed="12.50" length="3.11" shape="8.05,1251.65 6.91,1251.54"/>
      </lanes>
   </edge>
   <edge id=":A5_13" function="internal">
      <lanes>
         <lane id=":A5_13_0" depart="0" maxspeed="12.50" length="9.98" shape="6.91,1251.54 3.81,1251.25 0.77,1250.05 -1.04,1248.05 -1.65,1245.25"/>
      </lanes>
   </edge>
   <edge id=":A5_6" function="internal">
      <lanes>
         <lane id=":A5_6_0" depart="0" maxspeed="11.10" length="0.10" shape="8.05,1251.65 6.90,1250.88"/>
      </lanes>
   </edge>
   <edge id=":A5_14" function="internal">
      <lanes>
         <lane id=":A5_14_0" depart="0" maxspeed="11.10" length="4.72" shape="6.90,1250.88 6.81,1250.83 6.40,1250.00 6.81,1249.18 8.05,1248.35"/>
      </lanes>
   </edge>
   <edge id=":A5_7" function="internal">
      <lanes>
         <lane id=":A5_7_0" depart="0" maxspeed="12.50" length="5.00" shape="4.95,1245.25 5.14,1246.61 5.73,1247.58 6.69,1248.16 8.05,1248.35"/>
      </lanes>
   </edge>
   <edge id=":A5_8" function="internal">
      <lanes>
         <lane id=":A5_8_0" depart="0" maxspeed="13.90" length="9.50" shape="4.95,1245.25 4.95,1254.75"/>
      </lanes>
   </edge>
   <edge id=":A5_9" function="internal">
      <lanes>
         <lane id=":A5_9_0" depart="0" maxspeed="13.90" length="9.50" shape="1.65,1245.25 1.65,1254.75"/>
      </lanes>
   </edge>
   <edge id=":A5_10" function="internal">
      <lanes>
         <lane id=":A5_10_0" depart="0" maxspeed="13.90" length="0.10" shape="1.65,1245.25 0.88,1246.40"/>
      </lanes>
   </edge>
   <edge id=":A5_15" function="internal">
      <lanes>
         <lane id=":A5_15_0" depart="0" maxspeed="13.90" length="4.72" shape="0.88,1246.40 0.83,1246.49 0.00,1246.90 -0.82,1246.49 -1.65,1245.25"/>
      </lanes>
   </edge>
   <edge id=":A6_0" function="internal">
      <lanes>
         <lane id=":A6_0_0" depart="0" maxspeed="13.90" length="9.50" shape="-4.95,1504.75 -4.95,1495.25"/>
      </lanes>
   </edge>
   <edge id=":A6_1" function="internal">
      <lanes>
         <lane id=":A6_1_0" depart="0" maxspeed="13.90" length="9.50" shape="-1.65,1504.75 -1.65,1495.25"/>
      </lanes>
   </edge>
   <edge id=":A6_2" function="internal">
      <lanes>
         <lane id=":A6_2_0" depart="0" maxspeed="12.50" length="6.51" shape="-1.65,1504.75 -1.04,1501.95 2.93,1499.10"/>
      </lanes>
   </edge>
   <edge id=":A6_11" function="internal">
      <lanes>
         <lane id=":A6_11_0" depart="0" maxspeed="12.50" length="6.58" shape="2.93,1499.10 3.81,1498.75 8.05,1498.35"/>
      </lanes>
   </edge>
   <edge id=":A6_3" function="internal">
      <lanes>
         <lane id=":A6_3_0" depart="0" maxspeed="13.90" length="0.10" shape="-1.65,1504.75 -0.88,1503.60"/>
      </lanes>
   </edge>
   <edge id=":A6_12" function="internal">
      <lanes>
         <lane id=":A6_12_0" depart="0" maxspeed="13.90" length="4.72" shape="-0.88,1503.60 -0.83,1503.51 -0.00,1503.10 0.82,1503.51 1.65,1504.75"/>
      </lanes>
   </edge>
   <edge id=":A6_4" function="internal">
      <lanes>
         <lane id=":A6_4_0" depart="0" maxspeed="12.50" length="5.00" shape="8.05,1501.65 6.69,1501.84 5.73,1502.43 5.14,1503.39 4.95,1504.75"/>
      </lanes>
   </edge>
   <edge id=":A6_5" function="internal">
      <lanes>
         <lane id=":A6_5_0" depart="0" maxspeed="12.50" length="3.11" shape="8.05,1501.65 6.91,1501.54"/>
      </lanes>
   </edge>
   <edge id=":A6_13" function="internal">
      <lanes>
         <lane id=":A6_13_0" depart="0" maxspeed="12.50" length="9.98" shape="6.91,1501.54 3.81,1501.25 0.77,1500.05 -1.04,1498.05 -1.65,1495.25"/>
      </lanes>
   </edge>
   <edge id=":A6_6" function="internal">
      <lanes>
         <lane id=":A6_6_0" depart="0" maxspeed="11.10" length="0.10" shape="8.05,1501.65 6.90,1500.88"/>
      </lanes>
   </edge>
   <edge id=":A6_14" function="internal">
      <lanes>
         <lane id=":A6_14_0" depart="0" maxspeed="11.10" length="4.72" shape="6.90,1500.88 6.81,1500.83 6.40,1500.00 6.81,1499.18 8.05,1498.35"/>
      </lanes>
   </edge>
   <edge id=":A6_7" function="internal">
      <lanes>
         <lane id=":A6_7_0" depart="0" maxspeed="12.50" length="5.00" shape="4.95,1495.25 5.14,1496.61 5.73,1497.58 6.69,1498.16 8.05,1498.35"/>
      </lanes>
   </edge>
   <edge id=":A6_8" function="internal">
      <lanes>
         <lane id=":A6_8_0" depart="0" maxspeed="13.90" length="9.50" shape="4.95,1495.25 4.95,1504.75"/>
      </lanes>
   </edge>
   <edge id=":A6_9" function="internal">
      <lanes>