<?xml version="1.0"?>

<!-- generated on 03/16/11 11:45:38 by SUMO duarouter Version 0.12.2
<?xml version="1.0" encoding="iso-8859-1"?>

<configuration xmlns:xsi="http://www.w3.org/2001/XMLSchema-instance" xsi:noNamespaceSchemaLocation="http://sumo.sf.net/xsd/duarouterConfiguration.xsd">

    <input>
        <net-file value="manhattan.net.xml"/>
        <trip-defs value="trips.trips.xml"/>
    </input>

    <output>
        <output-file value="manhattan_l.rou.xml"/>
    </output>

</configuration>
-->

<routes>
    <vehicle id="t0" depart="0.00">
        <route edges="J1J2 J2I2 I2I3 I3I4 I4I5 I5I6 I6I7 I7I8 I8H8 H8G8 G8F8 F8F7"/>
    </vehicle>
    <vehicle id="t1" depart="6.00">
        <route edges="M12M11 M11M12 M12L12 L12M12"/>
    </vehicle>
    <vehicle id="t2" depart="12.00">
        <route edges="M5M6 M6L6 L6K6 K6J6 J6I6 I6H6 H6G6 G6F6 F6E6 E6D6 D6D7"/>
    </vehicle>
    <vehicle id="t3" depart="18.00">
        <route edges="M1M0 M0L0 L0K0 K0J0 J0I0 I0I1 I1I2 I2I3 I3I4 I4H4 H4G4 G4F4 F4F3"/>
    </vehicle>
    <vehicle id="t4" depart="24.00">
        <route edges="F5F4 F4E4 E4D4 D4C4 C4C5 C5C6 C6D6"/>
    </vehicle>
    <vehicle id="t5" depart="30.00">
        <route edges="E10D10 D10E10 E10E9 E9E8 E8F8 F8G8 G8H8 H8I8 I8I9"/>
    </vehicle>
    <vehicle id="t6" depart="36.00">
        <route edges="M5L5 L5K5 K5J5 J5I5 I5I6 I6I7 I7I8 I8I9 I9I10 I10I11 I11I12 I12H12 H12G12 G12H12"/>
    </vehicle>
    <vehicle id="t7" depart="42.00">
        <route edges="K6K7 K7J7 J7I7 I7H7 H7G7 G7G8"/>
    </vehicle>
    <vehicle id="t8" depart="48.00">
        <route edges="C5C6 C6C5 C5C4 C4D4 D4E4 E4F4 F4G4 G4H4 H4H3 H3I3"/>
    </vehicle>
    <vehicle id="t9" depart="54.00">
        <route edges="F12E12 E12E11 E11E10 E10E9 E9F9 F9G9 G9G10"/>
    </vehicle>
    <vehicle id="t10" depart="60.00">
        <route edges="D0D1 D1E1 E1E2 E2E3 E3E4 E4E5 E5E6 E6E7 E7E8 E8F8 F8G8 G8H8 H8I8 I8I9"/>
    </vehicle>
    <vehicle id="t11" depart="66.00">
        <route edges="D8C8 C8D8 D8E8 E8E7 E7E6 E6E5 E5E4 E4E3 E3E2 E2E1 E1E0 E0F0 F0G0 G0H0 H0G0"/>
    </vehicle>
    <vehicle id="t12" depart="72.00">
        <route edges="I9I8 I8H8 H8G8 G8G7 G7F7"/>
    </vehicle>
    <vehicle id="t13" depart="78.00">
        <route edges="D9D10 D10E10 E10E9 E9E8 E8F8 F8G8 G8H8 H8I8 I8J8 J8K8 K8L8 L8M8 M8M7 M7M6 M6M5 M5M6"/>
    </vehicle>
    <vehicle id="t14" depart="84.00">
        <route edges="L1M1 M1M2 M2M3 M3M4 M4M5 M5M6 M6L6"/>
    </vehicle>
    <vehicle id="t15" depart="90.00">
        <route edges="F2E2 E2E3 E3E4 E4E5 E5E6 E6E7 E7E8 E8D8 D8C8 C8B8"/>
    </vehicle>
    <vehicle id="t16" depart="96.00">
        <route edges="F3F4 F4E4 E4D4 D4C4 C4B4 B4A4 A4A5 A5A6 A6A7 A7A8 A8A9 A9A10 A10A9"/>
    </vehicle>
    <vehicle id="t17" depart="102.00">
        <route edges="J0K0 K0J0 J0I0 I0I1 I1I2 I2I3 I3I4 I4I5 I5I6 I6I7 I7I8 I8I9 I9H9"/>
    </vehicle>
    <vehicle id="t18" depart="108.00">
        <route edges="L3M3 M3M4 M4L4 L4K4 K4J4 J4J5 J5J6 J6J7 J7J8"/>
    </vehicle>
    <vehicle id="t19" depart="114.00">
        <route edges="E6E5 E5E6 E6E7 E7E8 E8F8 F8G8 G8H8 H8I8 I8I9"/>
    </vehicle>
    <vehicle id="t20" depart="120.00">
        <route edges="B6A6 A6A7 A7A8 A8B8 B8C8 C8D8 D8E8 E8F8 F8G8 G8H8 H8I8 I8J8 J8K8 K8L8 L8M8 M8M9 M9M10"/>
    </vehicle>
    <vehicle id="t21" depart="126.00">
        <route edges="G11F11 F11E11 E11E10 E10E9 E9E8 E8D8 D8C8 C8B8"/>
    </vehicle>
    <vehicle id="t22" depart="132.00">
        <route edges="I9I10 I10I9 I9I8 I8H8 H8G8 G8F8 F8E8 E8E7 E7E6 E6E5 E5E4 E4D4 D4C4 C4B4 B4B3 B3B2 B2B1 B1B0"/>
    </vehicle>
    <vehicle id="t23" depart="138.00">
        <route edges="L5L6 L6L5 L5L4 L4K4 K4J4 J4I4 I4H4 H4G4 G4F4 F4E4 E4D4 D4C4 C4B4 B4B3 B3B2 B2A2"/>
    </vehicle>
    <vehicle id="t24" depart="144.00">
        <route edges="E2E3 E3E2 E2E1 E1E0 E0F0 F0G0 G0H0 H0I0 I0J0 J0J1"/>
    </vehicle>
    <vehicle id="t25" depart="150.00">
        <route edges="G4H4 H4H5 H5H6 H6H7 H7H8 H8H9 H9H8"/>
    </vehicle>
    <vehicle id="t26" depart="156.00">
        <route edges="J5K5 K5K4 K4J4 J4I4 I4I3 I3I2 I2I1 I1H1 H1H2"/>
    </vehicle>
    <vehicle id="t27" depart="162.00">
        <route edges="I5I4 I4J4 J4K4 K4L4 L4L5"/>
    </vehicle>
    <vehicle id="t28" depart="168.00">
        <route edges="E4E5 E5E6 E6E7 E7F7 F7F6"/>
    </vehicle>
    <vehicle id="t29" depart="174.00">
        <route edges="L10M10 M10M9 M9M8 M8L8 L8K8 K8J8 J8I8 I8H8 H8G8 G8F8 F8E8 E8E7 E7E6 E6E5 E5D5 D5C5"/>
    </vehicle>
    <vehicle id="t30" depart="180.00">
        <route edges="C6C7 C7D7 D7D6"/>
    </vehicle>
    <vehicle id="t31" depart="186.00">
        <route edges="H10H9 H9H8 H8G8 G8F8 F8E8 E8D8 D8C8 C8B8 B8B7 B7B6 B6B5 B5B4"/>
    </vehicle>
    <vehicle id="t32" depart="192.00">
        <route edges="K5K4 K4J4 J4J5 J5J6 J6J7 J7J8 J8J9 J9I9"/>
    </vehicle>
    <vehicle id="t33" depart="198.00">
        <route edges="B6B7 B7B6 B6B5 B5B4 B4C4 C4D4 D4E4 E4F4 F4G4 G4H4 H4I4 I4I3 I3I2 I2I1 I1I0"/>
    </vehicle>
    <vehicle id="t34" depart="204.00">
        <route edges="K10J10 J10I10 I10I11 I11I12 I12H12 H12G12 G12F12 F12E12 E12D12 D12C12 C12B12 B12A12"/>
    </vehicle>
    <vehicle id="t35" depart="210.00">
        <route edges="D11E11 E11E10 E10F10 F10G10 G10F10"/>
    </vehicle>
    <vehicle id="t36" depart="216.00">
        <route edges="M11M12 M12L12 L12K12 K12J12 J12I12 I12I11 I11I10 I10I9 I9I8 I8I7 I7I6 I6I5 I5I4"/>
    </vehicle>
    <vehicle id="t37" depart="222.00">
        <route edges="I12J12 J12I12 I12I11 I11I10 I10I11"/>
    </vehicle>
    <vehicle id="t38" depart="228.00">
        <route edges="E10E9 E9E8 E8E7 E7E6 E6E5 E5E4 E4F4 F4G4 G4H4 H4I4 I4J4 J4K4 K4L4 L4L3 L3L2 L2M2"/>
    </vehicle>
    <vehicle id="t39" depart="234.00">
        <route edges="H5H4 H4G4 G4F4 F4E4 E4E5 E5E6 E6E7 E7E8 E8E9"/>
    </vehicle>
    <vehicle id="t40" depart="240.00">
        <route edges="H4G4 G4F4 F4E4 E4D4 D4C4 C4B4 B4B3 B3B2"/>
    </vehicle>
    <vehicle id="t41" depart="246.00">
        <route edges="I6J6 J6I6 I6I5 I5I4 I4H4 H4G4 G4F4 F4E4 E4D4 D4C4 C4B4 B4A4 A4A5 A5B5"/>
    </vehicle>
    <vehicle id="t42" depart="252.00">
        <route edges="L11K11 K11J11 J11I11 I11I10 I10I9 I9I8 I8H8"/>
    </vehicle>
    <vehicle id="t43" depart="258.00">
        <route edges="K8K9 K9K8 K8J8 J8I8 I8H8 H8G8 G8F8 F8E8 E8E9"/>
    </vehicle>
    <vehicle id="t44" depart="264.00">
        <route edges="J6J5 J5J4 J4K4"/>
    </vehicle>
    <vehicle id="t45" depart="270.00">
        <route edges="G7H7 H7I7 I7I6 I6I5 I5I4 I4J4"/>
    </vehicle>
    <vehicle id="t46" depart="276.00">
        <route edges="M8M7 M7M6 M6M5 M5M4 M4L4 L4K4 K4J4 J4I4 I4H4 H4G4 G4F4 F4E4 E4E3 E3E2 E2E1 E1D1 D1D2"/>
    </vehicle>
    <vehicle id="t47" depart="282.00">
        <route edges="F4G4 G4H4 H4I4 I4I5 I5I6 I6I7 I7J7 J7K7 K7L7 L7M7"/>
    </vehicle>
    <vehicle id="t48" depart="288.00">
        <route edges="A4B4 B4C4 C4D4 D4E4 E4F4 F4G4 G4H4 H4G4"/>
    </vehicle>
    <vehicle id="t49" depart="294.00">
        <route edges="E10E11 E11E10 E10F10 F10G10 G10H10 H10I10 I10I9 I9J9"/>
    </vehicle>
    <vehicle id="t50" depart="300.00">
        <route edges="K0J0 J0I0 I0I1 I1I2 I2I3 I3I4 I4I5 I5I6 I6I7 I7I8 I8I9 I9I10 I10I11 I11I12 I12J12 J12K12 K12L12 L12L11"/>
    </vehicle>
    <vehicle id="t51" depart="306.00">
        <route edges="A2B2 B2B3 B3B4 B4C4 C4D4 D4E4 E4E5 E5E6 E6E7 E7E8 E8E9 E9E10 E10E11 E11E12 E12F12 F12G12 G12F12"/>
    </vehicle>
    <vehicle id="t52" depart="312.00">
        <route edges="I0H0 H0I0 I0I1 I1I2 I2I3 I3I4 I4I5 I5I6 I6I7 I7I8 I8I9 I9I10 I10I11 I11I12 I12H12 H12G12"/>
    </vehicle>
    <vehicle id="t53" depart="318.00">
        <route edges="F12E12"/>
    </vehicle>
    <vehicle id="t54" depart="324.00">
        <route edges="J9I9 I9I10 I10I11 I11I12 I12H12 H12G12 G12F12 F12E12 E12D12 D12C12 C12B12 B12B11"/>
    </vehicle>
    <vehicle id="t55" depart="330.00">
        <route edges="E0E1 E1E2 E2E3 E3E4 E4E5 E5E6 E6E7 E7E8 E8D8 D8C8 C8C9"/>
    </vehicle>
    <vehicle id="t56" depart="336.00">
        <route edges="I4H4 H4G4 G4F4 F4E4 E4E3 E3E2 E2D2 D2D1"/>
    </vehicle>
    <vehicle id="t57" depart="342.00">
        <route edges="B6C6 C6C7 C7C8 C8D8 D8E8 E8E9 E9E10 E10E11 E11E12 E12F12 F12G12 G12H12 H12I12 I12J12 J12K12 K12L12 L12M12 M12L12"/>
    </vehicle>
    <vehicle id="t58" depart="348.00">
        <route edges="H10I10 I10I9 I9I8 I8H8 H8G8 G8F8 F8E8 E8E7 E7E6 E6E5 E5E4 E4D4 D4C4 C4B4 B4B3 B3A3"/>
    </vehicle>
    <vehicle id="t59" depart="354.00">
        <route edges="H6H5 H5G5 G5F5 F5E5 E5E6 E6D6 D6C6 C6C5"/>
    </vehicle>
    <vehicle id="t60" depart="360.00">
        <route edges="M10M11 M11M10 M10M9 M9M8 M8L8 L8K8 K8J8 J8I8 I8H8 H8G8 G8F8 F8E8 E8D8 D8C8 C8C9 C9B9"/>
    </vehicle>
    <vehicle id="t61" depart="366.00">
        <route edges="L5M5 M5M4 M4L4 L4K4 K4J4 J4I4 I4H4 H4G4 G4F4 F4E4 E4E5 E5F5"/>
    </vehicle>
    <vehicle id="t62" depart="372.00">
        <route edges="D12E12 E12E11 E11E10 E10E9 E9E8 E8E7"/>
    </vehicle>
    <vehicle id="t63" depart="378.00">
        <route edges="K5J5 J5I5 I5H5 H5G5 G5F5 F5E5 E5D5 D5D6"/>
    </vehicle>
    <vehicle id="t64" depart="384.00">
        <route edges="B9B10 B10B9 B9B8 B8C8 C8D8 D8E8 E8D8"/>
    </vehicle>
    <vehicle id="t65" depart="390.00">
        <route edges="B10A10 A10A9 A9A8 A8B8 B8C8 C8D8 D8D7 D7C7"/>
    </vehicle>
    <vehicle id="t66" depart="396.00">
        <route edges="H5I5 I5I4 I4I3 I3I2 I2I1 I1I0 I0H0 H0G0 G0H0"/>
    </vehicle>
    <vehicle id="t67" depart="402.00">
        <route edges="L1M1 M1L1"/>
    </vehicle>
    <vehicle id="t68" depart="408.00">
        <route edges="I11I10 I10I9 I9I8 I8I7 I7I6 I6I5 I5I4 I4I3 I3I2 I2I1 I1I0 I0I1"/>
    </vehicle>
    <vehicle id="t69" depart="414.00">
        <route edges="A7A8 A8A7 A7A6 A6A5 A5B5 B5C5 C5C4"/>
    </vehicle>
    <vehicle id="t70" depart="420.00">
        <route edges="J2K2 K2J2 J2I2 I2I1 I1I0 I0H0 H0G0 G0F0 F0E0"/>
    </vehicle>
    <vehicle id="t71" depart="426.00">
        <route edges="M7M6 M6M5 M5M4 M4L4 L4K4 K4J4 J4I4 I4H4 H4G4 G4F4 F4E4 E4E3 E3F3"/>
    </vehicle>
    <vehicle id="t72" depart="432.00">
        <route edges="D5E5 E5F5 F5G5 G5H5 H5H4"/>
    </vehicle>
    <vehicle id="t73" depart="438.00">
        <route edges="I7H7 H7H8 H8G8 G8F8 F8E8 E8D8 D8E8"/>
    </vehicle>
    <vehicle id="t74" depart="444.00">
        <route edges="J9J8 J8I8 I8H8 H8G8 G8F8 F8E8 E8D8 D8C8 C8B8 B8C8"/>
    </vehicle>
    <vehicle id="t75" depart="450.00">
        <route edges="L12M12 M12L12 L12K12 K12J12 J12I12 I12H12 H12G12 G12F12 F12E12 E12E11 E11E10 E10E9 E9E8 E8D8 D8C8 C8C7 C7C6"/>
    </vehicle>
    <vehicle id="t76" depart="456.00">
        <route edges="H9G9 G9G8 G8F8 F8E8 E8D8 D8C8 C8C7"/>
    </vehicle>
    <vehicle id="t77" depart="462.00">
        <route edges="I0J0 J0I0 I0I1 I1I2 I2J2"/>
    </vehicle>
    <vehicle id="t78" depart="468.00">
        <route edges="C0D0 D0E0 E0E1 E1E2 E2E3 E3E4 E4F4 F4G4 G4H4 H4I4 I4J4 J4K4 K4L4 L4M4 M4M5 M5M6 M6M7"/>
    </vehicle>
    <vehicle id="t79" depart="474.00">
        <route edges="J2J1 J1I1 I1H1 H1H2"/>
    </vehicle>
    <vehicle id="t80" depart="480.00">
        <route edges="E5D5 D5E5 E5F5 F5G5 G5H5 H5I5"/>
    </vehicle>
    <vehicle id="t81" depart="486.00">
        <route edges="I8H8 H8G8 G8F8 F8F9 F9F10 F10F11 F11E11"/>
    </vehicle>
    <vehicle id="t82" depart="492.00">
        <route edges="F5G5 G5G4 G4G3 G3G2 G2G1 G1G0 G0H0"/>
    </vehicle>
    <vehicle id="t83" depart="498.00">
        <route edges="I9H9 H9H8 H8I8 I8I7 I7I6 I6I5 I5I4 I4I3 I3I2 I2I1 I1J1 J1K1 K1L1 L1M1"/>
    </vehicle>
    <vehicle id="t84" depart="504.00">
        <route edges="A9A10 A10A11 A11A12 A12B12 B12C12 C12D12 D12E12 E12F12 F12G12 G12F12"/>
    </vehicle>
    <vehicle id="t85" depart="510.00">
        <route edges="K8L8 L8K8 K8J8 J8I8 I8H8 H8G8 G8F8 F8E8 E8E7 E7E6 E6E5 E5E4 E4D4 D4C4 C4B4 B4A4"/>
    </vehicle>
    <vehicle id="t86" depart="516.00">
        <route edges="L8L9 L9L8 L8K8 K8K7 K7K8"/>
    </vehicle>
    <vehicle id="t87" depart="522.00">
        <route edges="B8A8 A8A7 A7A6 A6A5 A5A4 A4A3 A3A2 A2A1 A1A2"/>
    </vehicle>
    <vehicle id="t88" depart="528.00">
        <route edges="E4D4 D4E4 E4E5 E5E6 E6E7 E7E8 E8E9 E9E10 E10E11 E11E12 E12F12 F12G12 G12H12 H12I12 I12J12 J12I12"/>
    </vehicle>
    <vehicle id="t89" depart="534.00">
        <route edges="C5B5 B5B6 B6B7 B7B8 B8C8 C8D8 D8E8 E8F8 F8G8 G8G9 G9G10"/>
    </vehicle>
    <vehicle id="t90" depart="540.00">
        <route edges="G8G7 G7G8 G8H8 H8I8 I8J8 J8K8 K8L8 L8M8 M8M9 M9M8"/>
    </vehicle>
    <vehicle id="t91" depart="546.00">
        <route edges="H9H8 H8G8 G8F8 F8E8 E8D8 D8C8 C8B8 B8A8 A8A7 A7A6 A6A5 A5A4 A4A3 A3B3"/>
    </vehicle>
    <vehicle id="t92" depart="552.00">
        <route edges="A5A4 A4B4 B4C4 C4D4 D4E4 E4E3 E3F3 F3F4"/>
    </vehicle>
    <vehicle id="t93" depart="558.00">
        <route edges="B4C4 C4D4 D4E4 E4F4 F4G4 G4H4 H4I4 I4J4 J4K4 K4L4 L4L5"/>
    </vehicle>
    <vehicle id="t94" depart="564.00">
        <route edges="A8A9 A9A10 A10A11 A11A12 A12B12 B12C12 C12D12 D12E12 E12D12"/>
    </vehicle>
    <vehicle id="t95" depart="570.00">
        <route edges="I6I7 I7I6 I6I5 I5I4 I4H4 H4G4 G4F4 F4E4 E4E3 E3E2 E2E1 E1E0 E0D0 D0E0"/>
    </vehicle>
    <vehicle id="t96" depart="576.00">
        <route edges="K1K2 K2J2 J2I2 I2I3 I3I4 I4J4"/>
    </vehicle>
    <vehicle id="t97" depart="582.00">
        <route edges="I9J9 J9I9 I9I10 I10I11 I11H11 H11G11 G11F11 F11E11 E11D11 D11D12"/>
    </vehicle>
    <vehicle id="t98" depart="588.00">
        <route edges="B11B12 B12C12 C12D12 D12E12 E12F12 F12G12 G12H12 H12I12 I12I11 I11I10 I10I9 I9J9 J9K9 K9K8"/>
    </vehicle>
    <vehicle id="t99" depart="594.00">
        <route edges="A10B10 B10C10 C10D10 D10E10 E10E11 E11F11 F11G11 G11H11 H11H10"/>
    </vehicle>
    <vehicle id="t100" depart="600.00">
        <route edges="I3H3 H3H4 H4I4 I4I5 I5I6 I6I7 I7I8 I8J8 J8K8 K8L8 L8L9 L9L10"/>
    </vehicle>
    <vehicle id="t101" depart="606.00">
        <route edges="F2F1 F1F2 F2F3 F3F4 F4G4 G4H4 H4H5 H5H6 H6H7"/>
    </vehicle>
    <vehicle id="t102" depart="612.00">
        <route edges="A9A8 A8A9 A9A10 A10A11 A11B11 B11B12"/>
    </vehicle>
    <vehicle id="t103" depart="618.00">
        <route edges="D1D2 D2E2 E2E3 E3E4 E4E5 E5E6 E6E7 E7E8 E8F8 F8G8 G8H8 H8I8 I8J8 J8K8 K8L8 L8M8 M8M9 M9M10 M10M11 M11M10"/>
    </vehicle>
    <vehicle id="t104" depart="624.00">
        <route edges="M5M6 M6M5 M5M4 M4L4 L4K4 K4J4 J4I4 I4H4 H4G4 G4F4 F4E4 E4D4 D4C4 C4B4 B4A4 A4A3 A3A2 A2A1 A1A0"/>
    </vehicle>
    <vehicle id="t105" depart="630.00">
        <route edges="L5L4 L4K4 K4J4 J4I4 I4H4 H4G4 G4F4 F4E4 E4E3 E3F3"/>
    </vehicle>
    <vehicle id="t106" depart="636.00">
        <route edges="J1J0 J0I0 I0I1 I1I2 I2I3 I3I4 I4H4 H4H5 H5I5"/>
    </vehicle>
    <vehicle id="t107" depart="642.00">
        <route edges="B7A7 A7A8 A8B8 B8C8 C8D8 D8E8 E8E9 E9E10 E10E11 E11F11 F11G11 G11H11 H11H10"/>
    </vehicle>
    <vehicle id="t108" depart="648.00">
        <route edges="K0J0 J0I0 I0H0 H0G0 G0F0"/>
    </vehicle>
    <vehicle id="t109" depart="654.00">
        <route edges="F10E10 E10E9 E9E8 E8D8 D8C8 C8B8 B8B7 B7B6 B6B7"/>
    </vehicle>
    <vehicle id="t110" depart="660.00">
        <route edges="D6C6 C6D6 D6E6 E6F6"/>
    </vehicle>
    <vehicle id="t111" depart="666.00">
        <route edges="E8E7 E7E8 E8E9 E9E10 E10E11 E11E12 E12D12 D12C12 C12B12"/>
    </vehicle>
    <vehicle id="t112" depart="672.00">
        <route edges="A6B6 B6B5 B5B4 B4C4 C4D4 D4E4 E4F4 F4G4 G4H4 H4I4 I4I5"/>
    </vehicle>
    <vehicle id="t113" depart="678.00">
        <route edges="I7J7 J7I7 I7I8 I8H8 H8G8 G8G7"/>
    </vehicle>
    <vehicle id="t114" depart="684.00">
        <route edges="I1I0 I0H0 H0G0 G0F0 F0E0 E0E1 E1E2 E2E3 E3E4 E4E5 E5E6 E6E7 E7E8 E8E9 E9E10 E10E11"/>
    </vehicle>
    <vehicle id="t115" depart="690.00">
        <route edges="I2J2 J2J3 J3J4 J4K4 K4L4 L4L5 L5K5"/>
    </vehicle>
    <vehicle id="t116" depart="696.00">
        <route edges="B3B4 B4B3 B3B2 B2B1 B1A1"/>
    </vehicle>
    <vehicle id="t117" depart="702.00">
        <route edges="J5J4 J4I4 I4H4 H4G4 G4F4 F4F5 F5F6 F6G6"/>
    </vehicle>
    <vehicle id="t118" depart="708.00">
        <route edges="D8E8 E8E7 E7E6 E6E5 E5E4 E4F4 F4G4 G4H4 H4I4 I4I3 I3I2"/>
    </vehicle>
    <vehicle id="t119" depart="714.00">
        <route edges="D2E2 E2E3 E3F3 F3G3 G3H3 H3I3 I3J3 J3K3 K3L3 L3K3"/>
    </vehicle>
    <vehicle id="t120" depart="720.00">
        <route edges="A10A11 A11A10 A10A9 A9A8 A8B8 B8C8 C8D8 D8D7 D7D6 D6D7"/>
    </vehicle>
    <vehicle id="t121" depart="726.00">
        <route edges="K7J7 J7J8 J8K8 K8L8 L8L9 L9M9"/>
    </vehicle>
    <vehicle id="t122" depart="732.00">
        <route edges="J4I4 I4I5 I5I6 I6I7 I7I8 I8H8 H8G8 G8G9 G9G10 G10H10"/>
    </vehicle>
    <vehicle id="t123" depart="738.00">
        <route edges="I9I10 I10I11 I11J11 J11K11 K11L11 L11M11 M11M10"/>
    </vehicle>
    <vehicle id="t124" depart="744.00">
        <route edges="G10G11 G11G10 G10G9 G9G8"/>
    </vehicle>
    <vehicle id="t125" depart="750.00">
        <route edges="F12E12 E12E11 E11E10 E10E9 E9E8 E8E7 E7E6 E6E5 E5E4 E4E3 E3E2 E2E1 E1F1 F1G1 G1H1 H1I1"/>
    </vehicle>
    <vehicle id="t126" depart="756.00">
        <route edges="L11L12 L12K12 K12J12 J12I12 I12I11 I11I10 I10I9 I9I8 I8H8 H8G8 G8H8"/>
    </vehicle>
    <vehicle id="t127" depart="762.00">
        <route edges="L2K2 K2J2 J2I2 I2I3 I3I4 I4I5 I5I6 I6I7 I7I8 I8I9 I9I10 I10I11 I11I12 I12I11"/>
    </vehicle>
    <vehicle id="t128" depart="768.00">
        <route edges="D7D6 D6E6 E6E7 E7E8 E8E9 E9E10 E10E11 E11F11 F11F12"/>
    </vehicle>
    <vehicle id="t129" depart="774.00">
        <route edges="L9M9 M9M10 M10M11 M11M12 M12L12 L12K12 K12J12 J12I12 I12H12 H12G12 G12F12 F12E12 E12D12 D12C12 C12B12 B12B11 B11A11"/>
    </vehicle>
    <vehicle id="t130" depart="780.00">
        <route edges="A8A7 A7A8 A8B8 B8C8 C8D8 D8E8 E8E9 E9E10 E10E11"/>
    </vehicle>
    <vehicle id="t131" depart="786.00">
        <route edges="C1D1 D1C1 C1B1 B1A1 A1A2 A2A3"/>
    </vehicle>
    <vehicle id="t132" depart="792.00">
        <route edges="K4K5 K5J5 J5I5 I5I6 I6I7 I7I8 I8H8 H8G8 G8F8 F8E8 E8D8 D8C8 C8C7"/>
    </vehicle>
    <vehicle id="t133" depart="798.00">
        <route edges="B7C7 C7D7 D7E7 E7E6 E6E5 E5F5 F5G5 G5H5 H5I5 I5J5 J5K5 K5L5"/>
    </vehicle>
    <vehicle id="t134" depart="804.00">
        <route edges="H2I2 I2I3 I3I4 I4H4 H4G4 G4F4 F4E4 E4E5 E5E6 E6E7"/>
    </vehicle>
    <vehicle id="t135" depart="810.00">
        <route edges="G4H4 H4G4 G4F4 F4E4 E4E5 E5E6 E6E7 E7E8 E8E9 E9E10 E10E9"/>
    </vehicle>
    <vehicle id="t136" depart="816.00">
        <route edges="G8F8 F8G8 G8H8 H8I8 I8I9 I9I10 I10I11 I11I12 I12J12"/>
    </vehicle>
    <vehicle id="t137" depart="822.00">
        <route edges="B4B3 B3B4 B4B5 B5B6 B6B7 B7B8 B8B9 B9B10"/>
    </vehicle>
    <vehicle id="t138" depart="828.00">
        <route edges="L0K0 K0J0 J0I0 I0I1 I1I2 I2I3 I3I4 I4I5 I5I6 I6I7 I7I6"/>
    </vehicle>
    <vehicle id="t139" depart="834.00">
        <route edges="H11H12 H12I12 I12J12 J12K12 K12L12 L12M12 M12M11"/>
    </vehicle>
    <vehicle id="t140" depart="840.00">
        <route edges="G5G6 G6G7 G7G8 G8H8 H8I8 I8J8 J8K8 K8K9 K9L9"/>
    </vehicle>
    <vehicle id="t141" depart="846.00">
        <route edges="C12D12 D12E12 E12F12 F12G12 G12H12 H12I12 I12I11 I11I10 I10I9 I9H9"/>
    </vehicle>
    <vehicle id="t142" depart="852.00">
        <route edges="B10A10 A10A9 A9A8 A8A7 A7A6 A6A5 A5A4 A4B4 B4C4 C4D4 D4E4 E4E3 E3E2 E2E1 E1E0 E0F0 F0G0 G0H0 H0I0 I0J0 J0K0 K0L0 L0M0"/>
    </vehicle>
    <vehicle id="t143" depart="858.00">
        <route edges="M0L0 L0K0 K0J0 J0I0"/>
    </vehicle>
    <vehicle id="t144" depart="864.00">
        <route edges="F12G12 G12H12 H12I12 I12I11 I11I10 I10I9 I9I8 I8J8 J8K8 K8L8 L8M8 M8L8"/>
    </vehicle>
    <vehicle id="t145" depart="870.00">
        <route edges="E7E6 E6E5 E5E4 E4F4 F4G4 G4H4 H4I4 I4I3 I3I2 I2J2 J2J3"/>
    </vehicle>
    <vehicle id="t146" depart="876.00">
        <route edges="L0M0 M0L0 L0K0 K0J0 J0I0 I0I1 I1I2 I2I3 I3I4 I4I5 I5I6 I6I7 I7I8 I8H8 H8G8 G8F8 F8F9 F9F10"/>
    </vehicle>
    <vehicle id="t147" depart="882.00">
        <route edges="L12K12 K12J12 J12I12 I12H12 H12G12 G12F12 F12F11 F11F10 F10F9 F9G9"/>
    </vehicle>
    <vehicle id="t148" depart="888.00">
        <route edges="L6L5 L5K5 K5K6 K6K7 K7J7"/>
    </vehicle>
    <vehicle id="t149" depart="894.00">
        <route edges="L9M9 M9L9 L9K9 K9J9 J9I9 I9H9 H9G9 G9F9 F9G9"/>
    </vehicle>
    <vehicle id="t150" depart="900.00">
        <route edges="L10L9 L9L8 L8K8 K8J8 J8I8 I8H8 H8G8 G8F8 F8E8 E8F8"/>
    </vehicle>
    <vehicle id="t151" depart="906.00">
        <route edges="H6H7 H7G7 G7F7 F7E7 E7E6 E6E5 E5E4 E4D4 D4C4 C4B4 B4A4 A4A3 A3A2 A2A1 A1A0 A0B0"/>
    </vehicle>
    <vehicle id="t152" depart="912.00">
        <route edges="C3D3 D3D4 D4E4 E4F4 F4G4 G4H4 H4I4 I4I5 I5I6 I6I5"/>
    </vehicle>
    <vehicle id="t153" depart="918.00">
        <route edges="H4I4 I4H4 H4G4 G4F4 F4E4 E4D4 D4C4 C4B4 B4A4 A4A5 A5A6"/>
    </vehicle>
    <vehicle id="t154" depart="924.00">
        <route edges="B3C3 C3C4 C4D4 D4E4 E4E5 E5E6 E6F6 F6E6"/>
    </vehicle>
    <vehicle id="t155" depart="930.00">
        <route edges="A10A9 A9A8 A8B8 B8C8 C8D8 D8E8 E8F8 F8G8 G8H8 H8I8 I8I7 I7I6 I6J6 J6K6"/>
    </vehicle>
    <vehicle id="t156" depart="936.00">
        <route edges="M12M11 M11M10 M10M9 M9M8 M8L8 L8K8 K8J8 J8I8 I8I7 I7I6 I6I5 I5H5 H5G5 G5F5"/>
    </vehicle>
    <vehicle id="t157" depart="942.00">
        <route edges="G7G6 G6G5 G5G4 G4F4 F4F3 F3F2 F2F1 F1F0 F0E0"/>
    </vehicle>
    <vehicle id="t158" depart="948.00">
        <route edges="A4A3 A3A4 A4A5 A5A6 A6A7 A7A8 A8B8 B8C8 C8D8 D8E8 E8F8 F8G8 G8H8 H8I8 I8J8 J8K8 K8L8 L8M8 M8M9 M9M8"/>
    </vehicle>
    <vehicle id="t159" depart="954.00">
        <route edges="F1F0 F0E0 E0E1 E1E2 E2E3 E3E4 E4E5 E5E6 E6E7 E7E8 E8D8 D8C8 C8C9 C9C8"/>
    </vehicle>
    <vehicle id="t160" depart="960.00">
        <route edges="B8A8 A8B8 B8C8 C8D8 D8E8 E8F8 F8G8 G8H8 H8I8 I8J8 J8K8 K8L8 L8M8 M8M7 M7M6"/>
    </vehicle>
    <vehicle id="t161" depart="966.00">
        <route edges="A7A6 A6A5 A5A4 A4B4 B4C4 C4D4 D4E4 E4E3 E3E2 E2E1 E1E0 E0F0 F0G0 G0H0 H0I0 I0J0 J0K0 K0J0"/>
    </vehicle>
    <vehicle id="t162" depart="972.00">
        <route edges="C7B7 B7B8 B8C8 C8D8 D8E8 E8E9 E9E10 E10E11 E11E12 E12D12"/>
    </vehicle>
    <vehicle id="t163" depart="978.00">
        <route edges="L6L7 L7L8 L8K8 K8K9 K9K10 K10K11 K11K12 K12J12"/>
    </vehicle>
    <vehicle id="t164" depart="984.00">
        <route edges="M4L4 L4K4 K4J4 J4I4"/>
    </vehicle>
    <vehicle id="t165" depart="990.00">
        <route edges="M6M7 M7M8 M8L8 L8K8 K8J8 J8I8 I8H8 H8G8 G8F8 F8F9 F9F10 F10F11 F11G11"/>
    </vehicle>
    <vehicle id="t166" depart="996.00">
        <route edges="A4A3 A3A4 A4B4 B4C4 C4D4 D4E4 E4F4 F4F3"/>
    </vehicle>
    <vehicle id="t167" depart="1002.00">
        <route edges="K1L1 L1K1 K1J1 J1I1 I1I2 I2I3 I3I4 I4H4 H4G4 G4G5 G5G6"/>
    </vehicle>
    <vehicle id="t168" depart="1008.00">
        <route edges="M1M0 M0M1 M1M2 M2M3 M3M4 M4M5 M5M6 M6M7 M7M8 M8M9 M9L9"/>
    </vehicle>
    <vehicle id="t169" depart="1014.00">
        <route edges="H12H11 H11I11 I11I10 I10J10 J10J11"/>
    </vehicle>
    <vehicle id="t170" depart="1020.00">
        <route edges="I12J12 J12I12 I12H12 H12G12 G12F12 F12E12 E12E11 E11E10 E10E9"/>
    </vehicle>
    <vehicle id="t171" depart="1026.00">
        <route edges="B4C4 C4D4 D4E4 E4F4 F4G4 G4H4 H4G4"/>
    </vehicle>
    <vehicle id="t172" depart="1032.00">
        <route edges="K4K5 K5K6 K6K7 K7K8 K8L8 L8L9 L9L8"/>
    </vehicle>
    <vehicle id="t173" depart="1038.00">
        <route edges="E11E12 E12E11 E11E10 E10E9 E9E8 E8F8 F8G8 G8H8 H8I8 I8J8 J8K8 K8L8 L8M8 M8M7 M7M6 M6M5"/>
    </vehicle>
    <vehicle id="t174" depart="1044.00">
        <route edges="E6E5 E5E4 E4F4 F4G4 G4G3"/>
    </vehicle>
    <vehicle id="t175" depart="1050.00">
        <route edges="C7C8 C8D8 D8E8 E8E9 E9E10 E10E11 E11E12 E12F12 F12G12 G12H12"/>
    </vehicle>
    <vehicle id="t176" depart="1056.00">
        <route edges="L1L0 L0K0 K0J0 J0I0 I0H0 H0G0 G0F0 F0E0 E0E1 E1E2 E2E3 E3D3 D3C3 C3C4"/>
    </vehicle>
    <vehicle id="t177" depart="1062.00">
        <route edges="E1D1 D1E1 E1E2 E2E3 E3E4 E4E5 E5E6 E6E7 E7E8 E8E9 E9E10"/>
    </vehicle>
    <vehicle id="t178" depart="1068.00">
        <route edges="L8K8 K8J8 J8J7 J7J6 J6J5 J5J4 J4J3 J3J2 J2J3"/>
    </vehicle>
    <vehicle id="t179" depart="1074.00">
        <route edges="A3A4 A4B4 B4C4 C4D4 D4E4 E4F4 F4G4 G4H4 H4I4 I4I3 I3I2 I2J2 J2I2"/>
    </vehicle>
    <vehicle id="t180" depart="1080.00">
        <route edges="M9M8 M8M7 M7M6 M6M5 M5M4 M4L4 L4L3 L3K3"/>
    </vehicle>
    <vehicle id="t181" depart="1086.00">
        <route edges="I12J12 J12I12 I12H12 H12G12 G12F12 F12E12 E12D12 D12C12 C12D12"/>
    </vehicle>
    <vehicle id="t182" depart="1092.00">
        <route edges="F0G0 G0H0 H0I0 I0I1 I1I2 I2I3 I3I4 I4I5 I5I6 I6I7 I7I8 I8I9 I9I10 I10J10 J10K10 K10L10"/>
    </vehicle>
    <vehicle id="t183" depart="1098.00">
        <route edges="K8K7 K7K6 K6K5 K5K4 K4L4 L4L3 L3L2 L2K2"/>
    </vehicle>
    <vehicle id="t184" depart="1104.00">
        <route edges="K3J3 J3J4 J4K4 K4K5 K5K6 K6K7 K7K8 K8K9 K9K10 K10K11"/>
    </vehicle>
    <vehicle id="t185" depart="1110.00">
        <route edges="J10I10 I10I9 I9I8 I8I7 I7I6 I6I5 I5I4 I4I3 I3I2 I2I1 I1J1"/>
    </vehicle>
    <vehicle id="t186" depart="1116.00">
        <route edges="M3M4 M4L4 L4K4 K4J4 J4I4 I4H4 H4H3 H3H2"/>
    </vehicle>
    <vehicle id="t187" depart="1122.00">
        <route edges="G2F2 F2E2 E2E3 E3E4 E4D4 D4C4 C4B4 B4B5 B5B6 B6A6"/>
    </vehicle>
    <vehicle id="t188" depart="1128.00">
        <route edges="E5D5 D5E5 E5F5 F5G5 G5H5 H5I5 I5H5"/>
    </vehicle>
    <vehicle id="t189" depart="1134.00">
        <route edges="I10I11 I11I10 I10I9 I9H9 H9G9 G9F9 F9G9"/>
    </vehicle>
    <vehicle id="t190" depart="1140.00">
        <route edges="G11H11 H11H12 H12I12 I12J12 J12K12 K12L12 L12M12 M12M11"/>
    </vehicle>
    <vehicle id="t191" depart="1146.00">
        <route edges="I4H4 H4I4 I4I5 I5I6 I6I7 I7I8 I8I9 I9I10 I10I11 I11I10"/>
    </vehicle>
    <vehicle id="t192" depart="1152.00">
        <route edges="G6F6 F6F7 F7F8 F8G8 G8H8 H8H9 H9H10 H10G10"/>
    </vehicle>
    <vehicle id="t193" depart="1158.00">
        <route edges="E10E9 E9E8 E8E7 E7E6 E6E5 E5E4 E4F4 F4G4 G4F4"/>
    </vehicle>
    <vehicle id="t194" depart="1164.00">
        <route edges="E8D8 D8C8 C8C7 C7C6 C6C5 C5C4 C4C3 C3C2 C2C1 C1B1"/>
    </vehicle>
    <vehicle id="t195" depart="1170.00">
        <route edges="B2C2 C2C3 C3C4 C4B4 B4B5 B5B6 B6B7 B7B8 B8B9 B9C9"/>
    </vehicle>
    <vehicle id="t196" depart="1176.00">
        <route edges="L6L5 L5K5 K5J5 J5I5 I5I6 I6I7 I7I8 I8H8 H8H7"/>
    </vehicle>
    <vehicle id="t197" depart="1182.00">
        <route edges="F3E3 E3D3 D3C3 C3B3 B3A3 A3A4"/>
    </vehicle>
    <vehicle id="t198" depart="1188.00">
        <route edges="J11J10 J10I10 I10I9 I9H9 H9G9 G9F9 F9E9 E9D9 D9D8"/>
    </vehicle>
    <vehicle id="t199" depart="1194.00">
        <route edges="L3L4 L4K4 K4J4 J4J3 J3J2 J2J3"/>
    </vehicle>
    <vehicle id="t200" depart="1200.00">
        <route edges="D7E7 E7E6 E6E5 E5E4 E4F4 F4G4 G4H4 H4I4 I4H4"/>
    </vehicle>
    <vehicle id="t201" depart="1206.00">
        <route edges="F5F4 F4G4 G4G3 G3G2 G2F2"/>
    </vehicle>
    <vehicle id="t202" depart="1212.00">
        <route edges="E11E12 E12E11 E11E10 E10E9 E9E8 E8D8 D8C8 C8B8 B8A8 A8A7 A7A6 A6A5 A5A4 A4B4"/>
    </vehicle>
    <vehicle id="t203" depart="1218.00">
        <route edges="E12D12 D12E12 E12F12 F12G12 G12H12 H12I12 I12I11"/>
    </vehicle>
    <vehicle id="t204" depart="1224.00">
        <route edges="L9L10 L10L9 L9L8 L8K8 K8J8 J8I8 I8H8 H8G8 G8F8 F8E8 E8E7 E7E6 E6D6 D6E6"/>
    </vehicle>
    <vehicle id="t205" depart="1230.00">
        <route edges="M4M3 M3M4 M4L4 L4K4 K4J4 J4I4 I4H4 H4G4 G4F4 F4E4 E4E5 E5E6 E6E7 E7E8 E8E9 E9E10 E10E11 E11E12 E12D12 D12C12 C12B12 B12C12"/>
    </vehicle>
    <vehicle id="t206" depart="1236.00">
        <route edges="A8A9 A9A8 A8B8 B8C8 C8D8 D8E8 E8F8 F8G8 G8H8 H8I8 I8J8 J8K8 K8L8 L8L7 L7L6 L6K6"/>
    </vehicle>
    <vehicle id="t207" depart="1242.00">
        <route edges="G11G12 G12H12 H12I12 I12I11 I11I10 I10J10 J10I10"/>
    </vehicle>
    <vehicle id="t208" depart="1248.00">
        <route edges="F3G3 G3G4"/>
    </vehicle>
    <vehicle id="t209" depart="1254.00">
        <route edges="C12B12 B12C12 C12C11 C11C10 C10C9 C9C8 C8C7 C7C6 C6B6"/>
    </vehicle>
    <vehicle id="t210" depart="1260.00">
        <route edges="C7C8 C8D8 D8E8 E8F8 F8G8 G8H8 H8I8 I8J8 J8K8 K8L8 L8M8 M8M7 M7M6"/>
    </vehicle>
    <vehicle id="t211" depart="1266.00">
        <route edges="M6M7 M7M6 M6M5 M5M4 M4L4 L4K4 K4J4 J4I4 I4I3 I3I2 I2I1 I1I0 I0H0"/>
    </vehicle>
    <vehicle id="t212" depart="1272.00">
        <route edges="K12L12 L12K12 K12J12 J12I12 I12H12 H12G12 G12F12 F12E12 E12E11 E11E10 E10E9 E9E8 E8D8 D8D7"/>
    </vehicle>
    <vehicle id="t213" depart="1278.00">
        <route edges="F3F4 F4G4 G4H4 H4I4 I4I5 I5I6 I6I7 I7J7 J7K7 K7K8"/>
    </vehicle>
    <vehicle id="t214" depart="1284.00">
        <route edges="A9A8 A8A7 A7A6 A6A5 A5A4 A4B4 B4C4 C4D4 D4E4 E4F4 F4G4 G4H4"/>
    </vehicle>
    <vehicle id="t215" depart="1290.00">
        <route edges="F10F11 F11E11 E11E10 E10E9 E9E8 E8D8 D8C8 C8B8 B8B9"/>
    </vehicle>
    <vehicle id="t216" depart="1296.00">
        <route edges="D10D11 D11D10 D10D9 D9D8 D8C8 C8C7 C7B7"/>
    </vehicle>
    <vehicle id="t217" depart="1302.00">
        <route edges="C8D8 D8E8 E8E7 E7E6 E6E5 E5E4 E4F4 F4G4 G4H4 H4I4 I4I3 I3I2 I2I1 I1I2"/>
    </vehicle>
    <vehicle id="t218" depart="1308.00">
        <route edges="G5G6 G6F6 F6E6 E6E7 E7E8 E8D8 D8C8 C8B8 B8B9 B9B10 B10B11 B11B10"/>
    </vehicle>