<?xml version="1.0"?>

<!-- generated on 03/24/11 10:05:03 by SUMO duarouter Version 0.12.2
<?xml version="1.0" encoding="iso-8859-1"?>

<configuration xmlns:xsi="http://www.w3.org/2001/XMLSchema-instance" xsi:noNamespaceSchemaLocation="http://sumo.sf.net/xsd/duarouterConfiguration.xsd">

    <input>
        <net-file value="manhattan.net.xml"/>
        <trip-defs value="trips.trips.xml"/>
    </input>

    <output>
        <output-file value="manhattan.rou.xml"/>
    </output>

</configuration>
-->

<routes>
    <vehicle id="t0" depart="0.00">
        <route edges="I5H5 H5H4 H4G4 G4F4 F4E4 E4E3 E3E2 E2E1 E1D1"/>
    </vehicle>
    <vehicle id="t1" depart="1.00">
        <route edges="B5A5 A5A4 A4B4 B4C4 C4D4 D4E4 E4E3 E3E2 E2E1 E1E0 E0F0 F0E0"/>
    </vehicle>
    <vehicle id="t2" depart="2.00">
        <route edges="B2C2 C2D2 D2E2 E2E3 E3F3 F3G3 G3G2"/>
    </vehicle>
    <vehicle id="t3" depart="3.00">
        <route edges="E2E1 E1E2 E2F2 F2G2 G2H2 H2I2"/>
    </vehicle>
    <vehicle id="t4" depart="4.00">
        <route edges="A4B4 B4C4 C4C5 C5C4"/>
    </vehicle>
    <vehicle id="t5" depart="5.00">
        <route edges="H3G3 G3G2 G2G1 G1H1 H1G1"/>
    </vehicle>
    <vehicle id="t6" depart="6.00">
        <route edges="H3H2 H2H3 H3H4 H4G4 G4F4 F4E4 E4D4 D4D5 D5D4"/>
    </vehicle>
    <vehicle id="t7" depart="7.00">
        <route edges="I2I3 I3H3 H3G3 G3F3 F3E3 E3E4"/>
    </vehicle>
    <vehicle id="t8" depart="8.00">
        <route edges="H4I4 I4H4 H4G4 G4F4 F4E4 E4D4 D4C4 C4B4 B4B3 B3B2 B2A2"/>
    </vehicle>
    <vehicle id="t9" depart="9.00">
        <route edges="G6G7 G7F7 F7E7 E7E6 E6E5 E5E4 E4E3 E3E2 E2E1 E1E0 E0F0"/>
    </vehicle>
    <vehicle id="t10" depart="10.00">
        <route edges="A7A6 A6A5 A5A4 A4B4 B4C4 C4D4 D4E4 E4F4 F4G4 G4H4 H4H3 H3H2"/>
    </vehicle>
    <vehicle id="t11" depart="11.00">
        <route edges="B1A1 A1A2 A2A3 A3A4 A4B4 B4C4 C4D4 D4E4 E4F4 F4G4 G4H4 H4G4"/>
    </vehicle>
    <vehicle id="t12" depart="12.00">
        <route edges="I5I4 I4H4 H4G4 G4F4 F4E4 E4E3 E3E2 E2E1 E1E0 E0D0 D0E0"/>
    </vehicle>
    <vehicle id="t13" depart="13.00">
        <route edges="E3E4 E4D4 D4C4 C4B4 B4B3 B3B2 B2B1 B1B0"/>
    </vehicle>
    <vehicle id="t14" depart="14.00">
        <route edges="D7E7 E7E6 E6E5 E5E4 E4D4 D4C4 C4B4 B4A4 A4A3 A3A2 A2A3"/>
    </vehicle>
    <vehicle id="t15" depart="15.00">
        <route edges="E0D0 D0E0 E0E1 E1E2 E2E3 E3E4 E4E5 E5F5 F5F4"/>
    </vehicle>
    <vehicle id="t16" depart="16.00">
        <route edges="E7E6 E6E5 E5E4 E4F4 F4G4 G4H4 H4H3 H3H2 H2H1"/>
    </vehicle>
    <vehicle id="t17" depart="17.00">
        <route edges="I2H2 H2H1 H1H0 H0G0 G0F0 F0E0 E0F0"/>
    </vehicle>
    <vehicle id="t18" depart="18.00">
        <route edges="E8F8 F8F7 F7F6 F6F5 F5F4 F4F3 F3E3"/>
    </vehicle>
    <vehicle id="t19" depart="19.00">
        <route edges="I8H8 H8G8 G8F8 F8E8 E8D8 D8C8 C8B8 B8B7"/>
    </vehicle>
    <vehicle id="t20" depart="20.00">
        <route edges="G4F4 F4E4 E4E5 E5E6 E6E7 E7E8 E8D8 D8C8"/>
    </vehicle>
    <vehicle id="t21" depart="21.00">
        <route edges="B2B1 B1B2 B2B3 B3B4 B4C4 C4D4 D4E4 E4E3"/>
    </vehicle>
    <vehicle id="t22" depart="22.00">
        <route edges="E5E4 E4E5 E5E6 E6E7 E7E6"/>
    </vehicle>
    <vehicle id="t23" depart="23.00">
        <route edges="D8C8 C8D8 D8D7 D7D6 D6D5 D5D4 D4C4"/>
    </vehicle>
    <vehicle id="t24" depart="24.00">
        <route edges="H7I7 I7I6 I6H6 H6G6 G6F6 F6E6"/>
    </vehicle>
    <vehicle id="t25" depart="25.00">
        <route edges="C8B8 B8C8 C8D8 D8E8 E8E7 E7E6 E6E5 E5E4 E4E3 E3E2 E2E1 E1F1"/>
    </vehicle>
    <vehicle id="t26" depart="26.00">
        <route edges="H5I5 I5H5 H5G5 G5F5 F5E5 E5D5 D5C5 C5B5 B5A5"/>
    </vehicle>
    <vehicle id="t27" depart="27.00">
        <route edges="I7H7 H7G7 G7F7 F7E7 E7E6 E6E5 E5D5 D5C5"/>
    </vehicle>
    <vehicle id="t28" depart="28.00">
        <route edges="G2H2 H2H3 H3H4 H4H5"/>
    </vehicle>
    <vehicle id="t29" depart="29.00">
        <route edges="H0G0 G0H0 H0H1 H1H2 H2H3 H3H4 H4I4"/>
    </vehicle>
    <vehicle id="t30" depart="30.00">
        <route edges="C1C0 C0D0 D0E0 E0E1 E1E2 E2E3 E3E4 E4F4 F4G4 G4H4 H4H5 H5G5"/>
    </vehicle>
    <vehicle id="t31" depart="31.00">
        <route edges="C0C1 C1D1 D1E1 E1E2 E2F2 F2G2"/>
    </vehicle>
    <vehicle id="t32" depart="32.00">
        <route edges="H2H3 H3H4 H4G4 G4F4 F4F5 F5E5"/>
    </vehicle>
    <vehicle id="t33" depart="33.00">
        <route edges="I4H4 H4G4 G4G5 G5G6 G6G7 G7G8 G8F8"/>
    </vehicle>
    <vehicle id="t34" depart="34.00">
        <route edges="F8F7 F7E7 E7E6 E6D6 D6C6 C6C7"/>
    </vehicle>
    <vehicle id="t35" depart="35.00">
        <route edges="E6E7 E7E8 E8D8 D8C8 C8B8 B8A8 A8A7"/>
    </vehicle>
    <vehicle id="t36" depart="36.00">
        <route edges="H4I4 I4I5 I5I6 I6I7 I7H7 H7G7 G7F7"/>
    </vehicle>
    <vehicle id="t37" depart="37.00">
        <route edges="F3F2 F2E2 E2E3 E3E4 E4E5 E5E4"/>
    </vehicle>
    <vehicle id="t38" depart="38.00">
        <route edges="D8E8 E8F8 F8G8"/>
    </vehicle>
    <vehicle id="t39" depart="39.00">
        <route edges="C4D4 D4D3 D3D2 D2D3"/>
    </vehicle>
    <vehicle id="t40" depart="40.00">
        <route edges="A7A6 A6B6 B6C6 C6D6 D6E6 E6F6 F6G6 G6H6 H6I6"/>
    </vehicle>
    <vehicle id="t41" depart="41.00">
        <route edges="E2E1 E1E2 E2E3 E3E4 E4E5 E5E6 E6E7 E7E8 E8F8 F8G8 G8H8 H8I8 I8H8"/>
    </vehicle>
    <vehicle id="t42" depart="42.00">
        <route edges="G4G5 G5F5 F5E5 E5E6 E6E7 E7D7 D7C7 C7B7 B7C7"/>
    </vehicle>
    <vehicle id="t43" depart="43.00">
        <route edges="E2E1 E1E0 E0F0 F0G0 G0H0 H0I0 I0H0"/>
    </vehicle>
    <vehicle id="t44" depart="44.00">
        <route edges="E7E8 E8E7 E7E6 E6E5 E5E4 E4E3 E3E2 E2E1 E1D1 D1D0"/>
    </vehicle>
    <vehicle id="t45" depart="45.00">
        <route edges="H8H7 H7H6 H6H5 H5H4 H4G4 G4G3 G3H3"/>
    </vehicle>
    <vehicle id="t46" depart="46.00">
        <route edges="E6E7 E7E6 E6E5 E5F5 F5E5"/>
    </vehicle>
    <vehicle id="t47" depart="47.00">
        <route edges="C2C1 C1C0 C0D0 D0E0 E0F0"/>
    </vehicle>
    <vehicle id="t48" depart="48.00">
        <route edges="E2D2 D2E2 E2E3 E3E4 E4F4 F4G4 G4H4 H4I4 I4I5 I5I6 I6I7 I7I6"/>
    </vehicle>
    <vehicle id="t49" depart="49.00">
        <route edges="I0I1 I1I2 I2I3 I3H3 H3G3 G3F3 F3E3 E3E2"/>
    </vehicle>
    <vehicle id="t50" depart="50.00">
        <route edges="F7F8 F8E8 E8D8 D8C8 C8C7 C7C6 C6D6"/>
    </vehicle>
    <vehicle id="t51" depart="51.00">
        <route edges="F6G6 G6F6 F6E6 E6E5 E5E4 E4E5"/>
    </vehicle>
    <vehicle id="t52" depart="52.00">
        <route edges="E2D2 D2D3 D3D4 D4D5 D5D6 D6C6"/>
    </vehicle>
    <vehicle id="t53" depart="53.00">
        <route edges="G5G4 G4F4 F4E4 E4E5 E5E6 E6E7 E7E8 E8D8 D8C8 C8B8 B8C8"/>
    </vehicle>
    <vehicle id="t54" depart="54.00">
        <route edges="G4G3 G3F3 F3E3 E3E2 E2E1 E1E0 E0D0 D0C0 C0D0"/>
    </vehicle>
    <vehicle id="t55" depart="55.00">
        <route edges="F0G0 G0F0 F0E0 E0E1 E1E2 E2E3 E3D3 D3E3"/>
    </vehicle>
    <vehicle id="t56" depart="56.00">
        <route edges="D4E4 E4D4 D4D5 D5C5"/>
    </vehicle>
    <vehicle id="t57" depart="57.00">
        <route edges="I6I5 I5I6 I6I7 I7H7 H7G7 G7F7 F7E7 E7F7"/>
    </vehicle>
    <vehicle id="t58" depart="58.00">
        <route edges="C7B7 B7B8 B8C8 C8D8 D8E8 E8F8 F8G8 G8H8"/>
    </vehicle>
    <vehicle id="t59" depart="59.00">
        <route edges="F4F3 F3G3 G3H3 H3I3 I3I2 I2I1"/>
    </vehicle>
    <vehicle id="t60" depart="60.00">
        <route edges="B1A1 A1A2 A2A3 A3A4 A4A5 A5A6 A6A7 A7B7 B7C7 C7D7"/>
    </vehicle>
    <vehicle id="t61" depart="61.00">
        <route edges="H2G2 G2G1 G1G2"/>
    </vehicle>
    <vehicle id="t62" depart="62.00">
        <route edges="I7I6 I6I5 I5I4 I4H4 H4G4 G4F4 F4E4 E4D4 D4C4 C4B4 B4A4 A4A3 A3A2 A2A1 A1A0"/>
    </vehicle>
    <vehicle id="t63" depart="63.00">
        <route edges="H8I8 I8I7 I7I6 I6I5 I5I4 I4I3 I3I4"/>
    </vehicle>
    <vehicle id="t64" depart="64.00">
        <route edges="F4F5 F5E5 E5E4 E4D4 D4E4"/>
    </vehicle>
    <vehicle id="t65" depart="65.00">
        <route edges="B0C0 C0B0 B0B1 B1B2 B2B3 B3B4 B4A4"/>
    </vehicle>
    <vehicle id="t66" depart="66.00">
        <route edges="H5H6 H6G6 G6F6 F6E6 E6E5"/>
    </vehicle>
    <vehicle id="t67" depart="67.00">
        <route edges="A3B3 B3C3 C3D3 D3D2"/>
    </vehicle>
    <vehicle id="t68" depart="68.00">
        <route edges="C4B4 B4C4 C4D4 D4E4 E4E5 E5E6 E6E7 E7F7 F7F6"/>
    </vehicle>
    <vehicle id="t69" depart="69.00">
        <route edges="A4A3 A3A2 A2A1 A1A2"/>
    </vehicle>
    <vehicle id="t70" depart="70.00">
        <route edges="B4B5 B5B4 B4C4 C4D4 D4E4 E4E3 E3E2 E2E1 E1F1 F1G1 G1G2"/>
    </vehicle>
    <vehicle id="t71" depart="71.00">
        <route edges="H4G4 G4F4 F4E4 E4E5 E5E6 E6E7 E7F7"/>
    </vehicle>
    <vehicle id="t72" depart="72.00">
        <route edges="I5I4 I4H4 H4G4 G4F4 F4E4 E4D4"/>
    </vehicle>
    <vehicle id="t73" depart="73.00">
        <route edges="I5H5 H5H6 H6H7 H7H8 H8H7"/>
    </vehicle>
    <vehicle id="t74" depart="74.00">
        <route edges="G0F0 F0E0 E0E1 E1E2 E2E3 E3E4 E4E5 E5E4"/>
    </vehicle>
    <vehicle id="t75" depart="75.00">
        <route edges="F6G6 G6G5 G5G4 G4H4 H4H3 H3H4"/>
    </vehicle>
    <vehicle id="t76" depart="76.00">
        <route edges="A2A1 A1A2 A2A3 A3A4 A4A5 A5A4"/>
    </vehicle>
    <vehicle id="t77" depart="77.00">
        <route edges="I7I6 I6I5 I5H5 H5G5 G5F5 F5E5 E5E4"/>
    </vehicle>
    <vehicle id="t78" depart="78.00">
        <route edges="A6A5 A5A4 A4B4 B4C4 C4D4 D4E4 E4E3 E3E2 E2E1 E1E0 E0F0 F0E0"/>
    </vehicle>
    <vehicle id="t79" depart="79.00">
        <route edges="A5A4 A4B4 B4C4 C4D4 D4E4 E4F4 F4G4 G4H4 H4H5 H5G5"/>
    </vehicle>
    <vehicle id="t80" depart="80.00">
        <route edges="G4G3 G3G4 G4G5 G5H5"/>
    </vehicle>
    <vehicle id="t81" depart="81.00">
        <route edges="H8I8 I8I7 I7I6 I6I5 I5I4 I4I3 I3I2 I2I1 I1I0 I0H0 H0G0 G0F0"/>
    </vehicle>
    <vehicle id="t82" depart="82.00">
        <route edges="E4D4 D4E4 E4F4 F4G4 G4H4 H4I4 I4I3 I3I2 I2I1 I1H1"/>
    </vehicle>
    <vehicle id="t83" depart="83.00">
        <route edges="C2B2 B2B3 B3B4 B4C4 C4D4 D4E4 E4E5 E5E6 E6E7 E7F7 F7G7 G7H7 H7I7"/>
    </vehicle>
    <vehicle id="t84" depart="84.00">
        <route edges="E3D3 D3D4 D4D5 D5D6 D6E6"/>
    </vehicle>
    <vehicle id="t85" depart="85.00">
        <route edges="A1A2 A2A3 A3A4 A4B4 B4C4 C4D4 D4E4 E4E5 E5E6 E6E7 E7F7 F7G7 G7H7 H7H6"/>
    </vehicle>
    <vehicle id="t86" depart="86.00">
        <route edges="B6A6 A6A5 A5A4 A4B4 B4C4 C4D4 D4E4 E4E3 E3E2 E2E1 E1E0 E0E1"/>
    </vehicle>
    <vehicle id="t87" depart="87.00">
        <route edges="H0G0 G0H0 H0I0 I0H0"/>
    </vehicle>
    <vehicle id="t88" depart="88.00">
        <route edges="E4E5 E5E4 E4E3 E3E2 E2E1 E1E0 E0D0 D0C0 C0B0 B0C0"/>
    </vehicle>
    <vehicle id="t89" depart="89.00">
        <route edges="F4F5 F5E5 E5E6 E6D6 D6C6 C6B6 B6A6"/>
    </vehicle>
    <vehicle id="t90" depart="90.00">
        <route edges="D5D4 D4C4"/>
    </vehicle>
    <vehicle id="t91" depart="91.00">
        <route edges="A0B0 B0A0 A0A1 A1A2 A2A3 A3A4 A4A5 A5A6 A6A7 A7A8 A8B8 B8C8 C8D8"/>
    </vehicle>
    <vehicle id="t92" depart="92.00">
        <route edges="E0D0 D0E0 E0E1 E1E2 E2E3 E3E4 E4F4 F4E4"/>
    </vehicle>
    <vehicle id="t93" depart="93.00">
        <route edges="G0H0 H0G0 G0F0 F0E0 E0E1 E1E2 E2E3 E3E4 E4D4 D4C4 C4B4 B4A4 A4B4"/>
    </vehicle>
    <vehicle id="t94" depart="94.00">
        <route edges="I1I0 I0I1 I1I2 I2I3 I3H3 H3H4"/>
    </vehicle>
    <vehicle id="t95" depart="95.00">
        <route edges="A6A5 A5A6 A6B6 B6C6"/>
    </vehicle>
    <vehicle id="t96" depart="96.00">
        <route edges="B3B2 B2B1 B1C1 C1D1 D1D2"/>
    </vehicle>
    <vehicle id="t97" depart="97.00">
        <route edges="F8E8 E8E7 E7E6 E6E5 E5E4 E4D4 D4C4 C4B4 B4B3"/>
    </vehicle>
    <vehicle id="t98" depart="98.00">
        <route edges="B8B7 B7A7 A7A6 A6A5 A5A4 A4A3 A3A2"/>
    </vehicle>
    <vehicle id="t99" depart="99.00">
        <route edges="A2A1 A1B1 B1C1 C1D1 D1E1 E1F1 F1G1 G1H1"/>
    </vehicle>
    <vehicle id="t100" depart="100.00">
        <route edges="C0D0 D0E0 E0E1 E1E2 E2E3 E3E4 E4F4 F4G4 G4H4 H4H5 H5H6 H6H5"/>
    </vehicle>
    <vehicle id="t101" depart="101.00">
        <route edges="E8E7 E7E6 E6E5 E5D5 D5C5 C5C6"/>
    </vehicle>
    <vehicle id="t102" depart="102.00">
        <route edges="B2C2 C2B2 B2A2 A2A3 A3A4 A4A5 A5A6 A6A7 A7A8 A8B8"/>
    </vehicle>
    <vehicle id="t103" depart="103.00">
        <route edges="F0G0 G0G1 G1G2 G2G3 G3H3"/>
    </vehicle>
    <vehicle id="t104" depart="104.00">
        <route edges="H2I2 I2I3 I3I4 I4H4 H4G4 G4F4 F4E4 E4E5 E5E6 E6E7 E7E8 E8D8 D8D7"/>
    </vehicle>
    <vehicle id="t105" depart="105.00">
        <route edges="G5G4 G4F4 F4E4 E4E3 E3E2 E2E1 E1E0 E0D0"/>
    </vehicle>
    <vehicle id="t106" depart="106.00">
        <route edges="H0G0 G0F0 F0E0 E0D0 D0C0 C0C1 C1C2 C2D2"/>
    </vehicle>
    <vehicle id="t107" depart="107.00">
        <route edges="I6I5 I5I4 I4I3 I3I2 I2I1 I1I0 I0I1"/>
    </vehicle>
    <vehicle id="t108" depart="108.00">
        <route edges="E4F4 F4E4 E4D4 D4C4 C4B4 B4A4 A4A3 A3A2 A2A1"/>
    </vehicle>
    <vehicle id="t109" depart="109.00">
        <route edges="G2G1 G1G0 G0F0 F0G0"/>
    </vehicle>
    <vehicle id="t110" depart="110.00">
        <route edges="D1E1 E1E2 E2E3 E3E4 E4D4 D4C4 C4B4 B4B5"/>
    </vehicle>
    <vehicle id="t111" depart="111.00">
        <route edges="A0B0 B0C0 C0D0 D0E0 E0E1 E1E2 E2E3 E3E4 E4E5 E5E6 E6E7 E7F7 F7G7 G7H7 H7G7"/>
    </vehicle>
    <vehicle id="t112" depart="112.00">
        <route edges="G6H6 H6H5 H5H4 H4G4 G4F4 F4E4 E4D4 D4C4 C4B4 B4A4 A4A3 A3A2"/>
    </vehicle>
    <vehicle id="t113" depart="113.00">
        <route edges="H7I7 I7I6 I6I5 I5I4 I4H4 H4G4 G4F4 F4E4 E4D4 D4C4 C4B4 B4A4 A4A3 A3B3"/>
    </vehicle>
    <vehicle id="t114" depart="114.00">
        <route edges="I0I1 I1I2 I2I3 I3I4 I4H4 H4G4 G4F4 F4E4 E4E5 E5E6 E6E5"/>
    </vehicle>
    <vehicle id="t115" depart="115.00">
        <route edges="E1E0 E0F0 F0G0 G0H0 H0I0 I0I1 I1I2 I2I3"/>
    </vehicle>
    <vehicle id="t116" depart="116.00">
        <route edges="B6A6 A6A5 A5A4 A4B4 B4C4 C4D4 D4E4 E4F4 F4G4 G4H4 H4I4 I4H4"/>
    </vehicle>
    <vehicle id="t117" depart="117.00">
        <route edges="C0D0 D0E0 E0E1 E1E2 E2E3 E3E4 E4E5 E5E6 E6E7 E7E8 E8F8 F8G8 G8H8 H8I8 I8H8"/>
    </vehicle>
    <vehicle id="t118" depart="118.00">
        <route edges="A1A0 A0A1 A1A2 A2A3 A3A4 A4B4 B4C4 C4D4 D4E4 E4E5 E5F5 F5E5"/>
    </vehicle>
    <vehicle id="t119" depart="119.00">
        <route edges="I0I1 I1I2 I2I3 I3I4 I4H4 H4G4 G4F4 F4E4 E4D4 D4C4 C4B4 B4B5 B5C5"/>
    </vehicle>
    <vehicle id="t120" depart="120.00">
        <route edges="D8C8 C8D8 D8E8 E8E7 E7E6 E6E5 E5E4 E4E3 E3E2 E2F2"/>
    </vehicle>
    <vehicle id="t121" depart="121.00">
        <route edges="I8H8 H8G8 G8F8 F8F7 F7F6 F6F5 F5F4 F4E4"/>
    </vehicle>
    <vehicle id="t122" depart="122.00">
        <route edges="H4H3 H3G3 G3F3 F3E3 E3D3 D3C3 C3B3 B3B4"/>
    </vehicle>
    <vehicle id="t123" depart="123.00">
        <route edges="E6E5 E5E4 E4E3 E3E2 E2E1 E1E0"/>
    </vehicle>
    <vehicle id="t124" depart="124.00">
        <route edges="E4D4 D4E4 E4F4 F4G4 G4G5"/>
    </vehicle>
    <vehicle id="t125" depart="125.00">
        <route edges="D4D5 D5D4 D4E4 E4E3 E3E2 E2E1 E1E0 E0F0 F0G0 G0G1"/>
    </vehicle>
    <vehicle id="t126" depart="126.00">
        <route edges="H4I4 I4H4 H4G4 G4F4 F4F3 F3F2 F2F1"/>
    </vehicle>
    <vehicle id="t127" depart="127.00">
        <route edges="I1I2 I2I3 I3I4 I4H4 H4H5 H5I5"/>
    </vehicle>
    <vehicle id="t128" depart="128.00">
        <route edges="I6I7 I7I6 I6I5 I5I4 I4H4 H4G4 G4F4 F4E4 E4E3 E3E2 E2E1 E1E0 E0D0 D0C0 C0B0 B0B1"/>
    </vehicle>
    <vehicle id="t129" depart="129.00">
        <route edges="E4D4 D4E4"/>
    </vehicle>
    <vehicle id="t130" depart="130.00">
        <route edges="E2E1 E1D1 D1D0"/>
    </vehicle>
    <vehicle id="t131" depart="131.00">
        <route edges="C0D0 D0E0 E0E1 E1E2 E2F2 F2F1"/>
    </vehicle>
    <vehicle id="t132" depart="132.00">
        <route edges="E3E4 E4D4 D4D3"/>
    </vehicle>
    <vehicle id="t133" depart="133.00">
        <route edges="C7C8 C8D8 D8E8 E8E7 E7E6 E6E5 E5E4 E4E3 E3E4"/>
    </vehicle>
    <vehicle id="t134" depart="134.00">
        <route edges="G8H8 H8G8 G8F8 F8E8 E8D8 D8C8 C8B8 B8B7 B7B6 B6B5 B5C5"/>
    </vehicle>
    <vehicle id="t135" depart="135.00">
        <route edges="A5A4 A4B4 B4C4 C4D4 D4E4 E4E5 E5E6 E6E7 E7E8 E8F8 F8F7"/>
    </vehicle>
    <vehicle id="t136" depart="136.00">
        <route edges="D2C2 C2C3 C3C4 C4D4 D4D5 D5E5"/>
    </vehicle>
    <vehicle id="t137" depart="137.00">
        <route edges="F7F6 F6E6 E6E5 E5E4 E4E3 E3E2 E2E1"/>
    </vehicle>
    <vehicle id="t138" depart="138.00">
        <route edges="G4G3 G3G4 G4H4 H4H5"/>
    </vehicle>
    <vehicle id="t139" depart="139.00">
        <route edges="A0B0 B0C0 C0D0 D0E0 E0E1 E1E2 E2F2 F2G2 G2G1"/>
    </vehicle>
    <vehicle id="t140" depart="140.00">
        <route edges="B3C3 C3B3 B3A3 A3A2 A2A3"/>
    </vehicle>
    <vehicle id="t141" depart="141.00">
        <route edges="F8G8 G8F8 F8E8 E8E7 E7E6 E6E5 E5E4 E4E3 E3E2 E2E1 E1E0 E0D0 D0E0"/>
    </vehicle>
    <vehicle id="t142" depart="142.00">
        <route edges="E7D7 D7D8 D8C8 C8B8 B8C8"/>
    </vehicle>
    <vehicle id="t143" depart="143.00">
        <route edges="G0H0 H0G0 G0F0 F0E0 E0E1 E1E2 E2E3 E3E4 E4E5 E5E6 E6E7 E7D7 D7C7 C7C6"/>
    </vehicle>
    <vehicle id="t144" depart="144.00">
        <route edges="H5I5 I5I6 I6I7 I7H7 H7G7 G7F7 F7E7 E7D7 D7C7"/>
    </vehicle>
    <vehicle id="t145" depart="145.00">
        <route edges="H4H3 H3H4 H4G4 G4F4 F4E4 E4E5 E5E6 E6E7 E7D7 D7C7 C7C6"/>
    </vehicle>
    <vehicle id="t146" depart="146.00">
        <route edges="D8C8 C8D8 D8E8 E8E7 E7E6 E6E5 E5E4 E4F4 F4G4 G4H4 H4I4 I4I3 I3I2 I2I1 I1I2"/>
    </vehicle>
    <vehicle id="t147" depart="147.00">
        <route edges="A2A3 A3A4 A4A5 A5A6 A6A7 A7A8 A8B8 B8A8"/>
    </vehicle>
    <vehicle id="t148" depart="148.00">
        <route edges="E4E5 E5E6 E6E7 E7D7 D7C7 C7B7 B7C7"/>
    </vehicle>
    <vehicle id="t149" depart="149.00">
        <route edges="B0C0 C0B0 B0A0 A0A1 A1A2 A2A3 A3A4 A4A5 A5A6 A6A7 A7A6"/>
    </vehicle>
    <vehicle id="t150" depart="150.00">
        <route edges="G5H5 H5H4 H4G4 G4F4 F4F3 F3F2 F2E2"/>
    </vehicle>
    <vehicle id="t151" depart="151.00">
        <route edges="I5H5 H5H6 H6H7 H7H8"/>
    </vehicle>
    <vehicle id="t152" depart="152.00">
        <route edges="E8F8 F8E8 E8E7 E7E6 E6E5 E5E4 E4D4 D4C4 C4B4 B4A4 A4A3 A3A2 A2A1 A1B1"/>
    </vehicle>
    <vehicle id="t153" depart="153.00">
        <route edges="B5C5 C5C4 C4B4 B4B3 B3B4"/>
    </vehicle>
    <vehicle id="t154" depart="154.00">
        <route edges="I2H2 H2H3 H3H4 H4G4 G4F4 F4E4 E4D4 D4C4 C4B4 B4A4 A4A5 A5A6 A6A7 A7A6"/>
    </vehicle>
    <vehicle id="t155" depart="155.00">
        <route edges="G3G4 G4G5 G5G6 G6G7 G7G8 G8F8"/>
    </vehicle>
    <vehicle id="t156" depart="156.00">
        <route edges="C4D4 D4E4 E4F4 F4G4 G4H4 H4H3 H3H2 H2H1"/>
    </vehicle>
    <vehicle id="t157" depart="157.00">
        <route edges="F0E0 E0E1 E1E2 E2E3 E3E4 E4D4 D4C4 C4B4 B4B3"/>
    </vehicle>
    <vehicle id="t158" depart="158.00">
        <route edges="B4A4 A4A3 A3A2 A2A1 A1B1 B1C1 C1B1"/>
    </vehicle>
    <vehicle id="t159" depart="159.00">
        <route edges="F7G7 G7F7 F7E7 E7E6 E6E5 E5E4 E4E3 E3E2 E2E1 E1E0 E0F0"/>
    </vehicle>
    <vehicle id="t160" depart="160.00">
        <route edges="H0G0 G0F0 F0E0 E0E1 E1E2 E2E3 E3E4 E4D4 D4D5 D5E5"/>
    </vehicle>
    <vehicle id="t161" depart="161.00">
        <route edges="A4B4 B4C4 C4D4 D4E4 E4F4 F4G4 G4H4 H4H3 H3I3"/>
    </vehicle>
    <vehicle id="t162" depart="162.00">
        <route edges="A1A0 A0A1 A1A2 A2A3 A3A4 A4B4 B4C4 C4D4 D4E4 E4E5 E5D5"/>
    </vehicle>
    <vehicle id="t163" depart="163.00">
        <route edges="E2F2 F2E2 E2E3 E3E4 E4E5 E5E6 E6D6 D6E6"/>
    </vehicle>
    <vehicle id="t164" depart="164.00">
        <route edges="H5I5 I5I4 I4I3 I3I2 I2I1 I1I0 I0H0 H0G0 G0F0 F0G0"/>
    </vehicle>
    <vehicle id="t165" depart="165.00">
        <route edges="B5B4 B4C4 C4D4 D4E4 E4E5 E5E6 E6E7 E7F7 F7G7 G7H7 H7I7"/>
    </vehicle>
    <vehicle id="t166" depart="166.00">
        <route edges="H8I8 I8I7 I7I6 I6I5 I5I4 I4H4 H4H3"/>
    </vehicle>
    <vehicle id="t167" depart="167.00">
        <route edges="E8F8 F8E8 E8D8 D8C8 C8C7 C7C8"/>
    </vehicle>
    <vehicle id="t168" depart="168.00">
        <route edges="D4D3 D3D4 D4C4 C4B4 B4B5 B5B6 B6B7 B7B8 B8A8"/>
    </vehicle>
    <vehicle id="t169" depart="169.00">
        <route edges="C8C7 C7C6 C6C5 C5C4 C4B4 B4B3 B3B2 B2B1 B1B0"/>
    </vehicle>
    <vehicle id="t170" depart="170.00">
        <route edges="E0D0 D0E0 E0F0 F0G0 G0H0 H0G0"/>
    </vehicle>
    <vehicle id="t171" depart="171.00">
        <route edges="D4E4 E4D4 D4C4 C4C5 C5B5"/>
    </vehicle>
    <vehicle id="t172" depart="172.00">
        <route edges="A1A2 A2A3 A3A4 A4A5 A5A6 A6A7 A7A8 A8A7"/>
    </vehicle>
    <vehicle id="t173" depart="173.00">
        <route edges="B2A2 A2A3 A3A4 A4B4 B4C4 C4D4 D4E4 E4E5 E5E6 E6E7 E7E8 E8F8 F8G8 G8F8"/>
    </vehicle>
    <vehicle id="t174" depart="174.00">
        <route edges="A7A8 A8A7 A7A6 A6A5 A5B5 B5A5"/>
    </vehicle>
    <vehicle id="t175" depart="175.00">
        <route edges="G2F2 F2E2 E2E3 E3E4 E4E5 E5E6 E6E7 E7E8 E8D8 D8C8 C8B8 B8A8"/>
    </vehicle>
    <vehicle id="t176" depart="176.00">
        <route edges="D7E7 E7F7 F7G7 G7H7 H7I7 I7I8"/>
    </vehicle>
    <vehicle id="t177" depart="177.00">
        <route edges="F2E2 E2E3 E3E4 E4E5 E5E6 E6E7 E7E8 E8D8"/>
    </vehicle>
    <vehicle id="t178" depart="178.00">
        <route edges="D5D6 D6E6 E6E5 E5E4 E4F4 F4G4 G4H4 H4H3 H3G3"/>
    </vehicle>
    <vehicle id="t179" depart="179.00">
        <route edges="I0H0 H0G0 G0F0 F0E0 E0D0 D0C0 C0B0 B0C0"/>
    </vehicle>
    <vehicle id="t180" depart="180.00">
        <route edges="H8I8 I8I7 I7I6 I6I5 I5I4 I4I3 I3I2 I2I1 I1I0 I0H0 H0G0 G0F0 F0G0"/>
    </vehicle>
    <vehicle id="t181" depart="181.00">
        <route edges="C4C3 C3C4 C4B4 B4A4 A4A5"/>
    </vehicle>
    <vehicle id="t182" depart="182.00">
        <route edges="G1G0 G0F0 F0E0 E0E1 E1E2 E2D2 D2D1"/>
    </vehicle>
    <vehicle id="t183" depart="183.00">
        <route edges="F2F3 F3E3 E3D3 D3C3 C3D3"/>
    </vehicle>
    <vehicle id="t184" depart="184.00">
        <route edges="A5A4 A4B4 B4C4 C4D4"/>
    </vehicle>
    <vehicle id="t185" depart="185.00">
        <route edges="E0D0 D0E0 E0E1 E1E2 E2E3 E3E4 E4E5 E5E6 E6E7 E7E8"/>
    </vehicle>
    <vehicle id="t186" depart="186.00">
        <route edges="F6E6 E6E5 E5E4 E4E3 E3E2 E2F2 F2E2"/>
    </vehicle>
    <vehicle id="t187" depart="187.00">
        <route edges="H3H2 H2H3 H3H4 H4G4 G4F4 F4E4 E4E5 E5E6 E6E7 E7F7"/>
    </vehicle>
    <vehicle id="t188" depart="188.00">
        <route edges="A5A6 A6A5 A5A4 A4B4 B4C4 C4D4 D4E4 E4E3 E3E2 E2E1 E1F1 F1G1 G1G2"/>
    </vehicle>
    <vehicle id="t189" depart="189.00">
        <route edges="G4F4 F4E4"/>
    </vehicle>
    <vehicle id="t190" depart="190.00">
        <route edges="C0D0 D0C0 C0B0 B0A0 A0A1 A1A2 A2A3 A3A4 A4A5 A5A6 A6A7 A7A8 A8B8"/>
    </vehicle>
    <vehicle id="t191" depart="191.00">
        <route edges="I3H3 H3H4 H4I4 I4I5 I5I6 I6I7 I7I6"/>
    </vehicle>
    <vehicle id="t192" depart="192.00">
        <route edges="H4G4 G4F4 F4E4 E4D4 D4C4 C4B4 B4C4"/>
    </vehicle>
    <vehicle id="t193" depart="193.00">
        <route edges="I8H8 H8G8 G8G7 G7G6 G6F6"/>
    </vehicle>
    <vehicle id="t194" depart="194.00">
        <route edges="H5G5 G5F5 F5E5 E5E6 E6E7 E7D7 D7C7 C7D7"/>
    </vehicle>
    <vehicle id="t195" depart="195.00">
        <route edges="G7G8 G8F8 F8E8 E8E7 E7E6 E6E5 E5E4 E4E3 E3E2 E2E1 E1E0 E0D0"/>
    </vehicle>
    <vehicle id="t196" depart="196.00">
        <route edges="F2F1 F1F2 F2F3 F3F4 F4G4 G4H4 H4H5 H5I5"/>
    </vehicle>
    <vehicle id="t197" depart="197.00">
        <route edges="C8C7 C7D7 D7E7 E7E6 E6E5 E5E4 E4E5"/>
    </vehicle>
    <vehicle id="t198" depart="198.00">
        <route edges="A3A4 A4B4 B4C4 C4D4 D4E4 E4E5 E5E6 E6E7 E7F7 F7G7 G7H7 H7H8"/>
    </vehicle>
    <vehicle id="t199" depart="199.00">
        <route edges="G3G2 G2F2 F2E2 E2E3 E3E4 E4D4 D4C4 C4B4 B4A4 A4A5 A5A6 A6A7 A7B7"/>
    </vehicle>
    <vehicle id="t200" depart="200.00">
        <route edges="A2A1 A1A2 A2A3 A3A4 A4B4 B4C4 C4D4 D4E4 E4F4 F4G4 G4F4"/>
    </vehicle>
    <vehicle id="t201" depart="201.00">
        <route edges="E0F0 F0E0 E0D0 D0C0 C0B0 B0A0 A0A1 A1A2 A2A1"/>
    </vehicle>
    <vehicle id="t202" depart="202.00">
        <route edges="G7F7 F7F6 F6F5 F5F4 F4G4 G4H4 H4I4 I4I5"/>
    </vehicle>
    <vehicle id="t203" depart="203.00">
        <route edges="C5D5 D5D4 D4E4 E4E3 E3E2 E2F2 F2G2 G2G1"/>
    </vehicle>
    <vehicle id="t204" depart="204.00">
        <route edges="D0C0 C0D0 D0E0 E0E1 E1E2 E2D2"/>
    </vehicle>
    <vehicle id="t205" depart="205.00">
        <route edges="H3I3 I3I2 I2I1 I1H1 H1G1 G1F1 F1E1 E1D1 D1C1 C1B1 B1A1"/>
    </vehicle>
    <vehicle id="t206" depart="206.00">
        <route edges="H0G0 G0H0 H0H1 H1H2 H2H3 H3H4 H4H5 H5H6 H6H7 H7G7"/>
    </vehicle>
    <vehicle id="t207" depart="207.00">
        <route edges="A0B0 B0C0 C0D0 D0E0 E0E1 E1E2 E2E3 E3E4 E4E5 E5E6 E6E7 E7E8 E8F8"/>
    </vehicle>
    <vehicle id="t208" depart="208.00">
        <route edges="B8C8 C8D8 D8E8 E8E7 E7E6 E6E5 E5E4 E4E3 E3E2 E2E1 E1E0 E0D0"/>
    </vehicle>
    <vehicle id="t209" depart="209.00">
        <route edges="E7E8 E8E7 E7E6 E6E5 E5E4 E4E3 E3E2 E2E1 E1E0 E0D0 D0C0 C0B0 B0C0"/>
    </vehicle>
    <vehicle id="t210" depart="210.00">
        <route edges="F4E4 E4F4 F4G4 G4H4 H4I4 I4I5 I5I6 I6I5"/>
    </vehicle>
    <vehicle id="t211" depart="211.00">
        <route edges="H0G0 G0H0 H0H1 H1H2 H2H1"/>
    </vehicle>
    <vehicle id="t212" depart="212.00">
        <route edges="E2F2 F2E2 E2E3 E3D3 D3C3 C3B3 B3A3"/>
    </vehicle>
    <vehicle id="t213" depart="213.00">
        <route edges="D8C8 C8D8 D8E8 E8E7 E7E6 E6E5 E5E4 E4E3 E3E2 E2F2 F2G2 G2G1"/>
    </vehicle>
    <vehicle id="t214" depart="214.00">
        <route edges="B1A1 A1A2 A2A3 A3A4 A4B4 B4C4 C4D4 D4E4 E4E5 E5E6 E6E7 E7E8 E8F8 F8G8 G8H8 H8I8 I8H8"/>
    </vehicle>
    <vehicle id="t215" depart="215.00">
        <route edges="E2E3 E3E2 E2E1 E1E0 E0F0 F0G0 G0H0 H0I0"/>
    </vehicle>
    <vehicle id="t216" depart="216.00">
        <route edges="B5B4 B4C4 C4D4 D4E4 E4F4 F4G4 G4H4 H4G4"/>
    </vehicle>
    <vehicle id="t217" depart="217.00">
        <route edges="E4D4 D4E4 E4F4 F4G4 G4H4"/>
    </vehicle>
    <vehicle id="t218" depart="218.00">
        <route edges="H7G7 G7H7 H7I7 I7I6 I6I5 I5I4 I4I3 I3I2 I2H2"/>
    </vehicle>
    <vehicle id="t219" depart="219.00">
        <route edges="I3I4 I4H4 H4G4 G4F4 F4F5 F5E5"/>
    </vehicle>
    <vehicle id="t220" depart="220.00">
        <route edges="B3B4 B4A4 A4A5 A5A6 A6A7 A7A8 A8A7"/>
    </vehicle>
    <vehicle id="t221" depart="221.00">
        <route edges="A1A2 A2A1 A1B1 B1C1 C1D1 D1E1 E1F1 F1G1 G1H1 H1H2"/>
    </vehicle>
    <vehicle id="t222" depart="222.00">
        <route edges="E1E0 E0E1 E1E2 E2E3 E3E4 E4F4 F4E4"/>
    </vehicle>
    <vehicle id="t223" depart="223.00">
        <route edges="G3G2 G2G3 G3G4 G4H4 H4I4 I4I5"/>
    </vehicle>
    <vehicle id="t224" depart="224.00">
        <route edges="I7I8 I8H8 H8G8 G8F8 F8E8 E8E7 E7E6 E6E5 E5E4 E4D4 D4C4 C4B4 B4A4 A4A3 A3A2 A2A3"/>
    </vehicle>
    <vehicle id="t225" depart="225.00">
        <route edges="H7G7 G7F7 F7E7 E7E6 E6E5 E5D5 D5C5 C5B5 B5A5 A5B5"/>
    </vehicle>
    <vehicle id="t226" depart="226.00">
        <route edges="B8A8 A8B8 B8C8 C8D8 D8E8 E8E7 E7E6 E6E5 E5F5 F5G5 G5H5 H5H4"/>
    </vehicle>
    <vehicle id="t227" depart="227.00">
        <route edges="A4A3 A3A4 A4B4 B4C4 C4C5 C5C4"/>
    </vehicle>
    <vehicle id="t228" depart="228.00">
        <route edges="A8A7 A7A6 A6A5 A5A4 A4B4 B4C4 C4D4 D4D3 D3D2 D2E2"/>
    </vehicle>
    <vehicle id="t229" depart="229.00">
        <route edges="A7A6 A6A7 A7B7 B7C7 C7D7 D7D8"/>
    </vehicle>
    <vehicle id="t230" depart="230.00">
        <route edges="B3B2 B2B3 B3B4 B4C4 C4D4 D4E4 E4E5 E5E6 E6E7 E7F7 F7F6"/>
    </vehicle>
    <vehicle id="t231" depart="231.00">
        <route edges="B4B3 B3B4 B4C4 C4D4 D4E4 E4E5 E5E6 E6E7 E7F7 F7F8"/>
    </vehicle>
    <vehicle id="t232" depart="232.00">
        <route edges="A1A2 A2A3 A3A4 A4B4 B4C4 C4D4 D4E4 E4F4 F4G4 G4H4 H4I4 I4I3 I3I4"/>
    </vehicle>
    <vehicle id="t233" depart="233.00">
        <route edges="D0C0 C0B0 B0B1 B1B2 B2B3 B3B4 B4B5 B5B6 B6B7 B7B8"/>
    </vehicle>
    <vehicle id="t234" depart="234.00">
        <route edges="C6C7 C7C6 C6C5 C5C4 C4C3 C3C2 C2C1 C1D1"/>
    </vehicle>
    <vehicle id="t235" depart="235.00">
        <route edges="H7H8"/>
    </vehicle>
    <vehicle id="t236" depart="236.00">
        <route edges="E4E5 E5E6 E6E7 E7D7 D7C7 C7B7 B7B6"/>
    </vehicle>
    <vehicle id="t237" depart="237.00">
        <route edges="E0D0 D0C0 C0B0 B0A0"/>
    </vehicle>
    <vehicle id="t238" depart="238.00">
        <route edges="G8H8 H8I8 I8I7 I7I8"/>
    </vehicle>
    <vehicle id="t239" depart="239.00">
        <route edges="I1I2 I2I3 I3I4 I4H4 H4G4 G4F4 F4E4 E4E5 E5E6 E6E7 E7E8 E8D8 D8C8 C8B8 B8C8"/>
    </vehicle>
    <vehicle id="t240" depart="240.00">
        <route edges="C3D3 D3D4 D4C4 C4B4 B4A4 A4A5"/>
    </vehicle>
    <vehicle id="t241" depart="241.00">
        <route edges="E4F4 F4E4 E4D4 D4C4 C4B4 B4A4 A4A3 A3A2 A2A3"/>
    </vehicle>
    <vehicle id="t242" depart="242.00">
        <route edges="I1H1 H1G1 G1F1 F1E1 E1E2 E2E3 E3E4 E4D4 D4C4 C4B4 B4A4 A4A5 A5A6 A6B6"/>
    </vehicle>
    <vehicle id="t243" depart="243.00">