[Config manhattan]
warmup-period = 260s
*.node[*].appl.runUp = 255s
sim-time-limit = 290s

[Config manhattan-light]
extends = manhattan
*.node[*].appl.maxVehicles = 450

[Config manhattan-heavy]
extends = manhattan
*.node[*].appl.maxVehicles = 1200

[Config manhattan-light-windows]
extends = manhattan-light
*.manager.launchConfig = xmldoc("networks/windows/manhattan_light-launchd.launch.xml")

[Config manhattan-heavy-windows]
extends = manhattan-heavy
*.manager.launchConfig = xmldoc("networks/windows/manhattan_heavy-launchd.launch.xml")

[Config manhattan-light-linux]
extends = manhattan-light
*.manager.launchConfig = xmldoc("networks/linux/manhattan_light-launchd.launch.xml")

[Config manhattan-heavy-linux]
extends = manhattan-heavy
*.manager.launchConfig = xmldoc("networks/linux/manhattan_heavy-launchd.launch.xml")

[Config london]
warmup-period = 300s
*.node[*].appl.runUp = 295s
sim-time-limit = 330s

[Config london-light]
extends = london
*.node[*].appl.maxVehicles = 800

[Config london-heavy]
extends = london
*.node[*].appl.maxVehicles = 1200

[Config london-light-windows]
extends = london-light
*.manager.launchConfig = xmldoc("networks/windows/london_light-launchd.launch.xml")

[Config london-heavy-windows]
extends = london-heavy
*.manager.launchConfig = xmldoc("networks/windows/london_heavy-launchd.launch.xml")

[Config london-light-linux]
extends = london-light
*.manager.launchConfig = xmldoc("networks/linux/london_light-launchd.launch.xml")

[Config london-heavy-linux]
extends = london-heavy
*.manager.launchConfig = xmldoc("networks/linux/london_heavy-launchd.launch.xml")

[Config highway]
warmup-period = 260s
*.node[*].appl.runUp = 255s
sim-time-limit = 290s

[Config highway-light]
extends = highway
*.node[*].appl.maxVehicles = 1000

[Config highway-heavy]
extends = highway
*.node[*].appl.maxVehicles = 4000

[Config highway-light-windows]
extends = highway-light
*.manager.launchConfig = xmldoc("networks/windows/highway_light-launchd.launch.xml")

[Config highway-heavy-windows]
extends = highway-heavy
*.manager.launchConfig = xmldoc("networks/windows/highway_heavy-launchd.launch.xml")

[Config highway-light-linux]
extends = highway-light
*.manager.launchConfig = xmldoc("networks/linux/highway_light-launchd.launch.xml")

[Config highway-heavy-linux]
extends = highway-heavy
*.manager.launchConfig = xmldoc("networks/linux/highway_heavy-launchd.launch.xml")