<?xml version="1.0"?>

<routes>
  <vtypeDistribution id="types">
    <vtype id="p1" accel="0.7" decel="4.5" sigma="0.5" length="5" maxspeed="70" color="0,0,1" probability="0.8" />
    <vtype id="p2" accel="0.9" decel="6.5" sigma="0.2" length="4" maxspeed="90" color="1,0,0" probability="0.1" />
    <vtype id="t1" accel="0.5" decel="4" sigma="0.4" length="18" maxspeed="50" color="0,1,0" probability="0.1" />
  </vtypeDistribution>

  <routeDistribution id="routes">
    <route id="4038599_to_4045550" edges="4038599 48948855 48948854#0 48948854#0-AddedOffRampEdge 4045550" probability="0.02" />
    <route id="4038599_to_4045553" edges="4038599 48948855 48948854#0 48948854#0-AddedOffRampEdge 48948854#1 48948854#2-AddedOnRampEdge 48948854#2 48948854#3-AddedOnRampEdge 48948854#3 4038597 24846365 24846372#0 24846372#0-AddedOffRampEdge 4045553" probability="0.02" />
    <route id="4038599_to_4038595" edges="4038599 48948855 48948854#0 48948854#0-AddedOffRampEdge 48948854#1 48948854#2-AddedOnRampEdge 48948854#2 48948854#3-AddedOnRampEdge 48948854#3 4038597 24846365 24846372#0 24846372#0-AddedOffRampEdge 24846372#1 24846372#2-AddedOnRampEdge 24846372#2 24846372#3-AddedOnRampEdge 24846372#3 4038595" probability="0.84" />

    <route id="24613154_to_4045553" edges="24613154 48948854#2-AddedOnRampEdge 48948854#2 48948854#3-AddedOnRampEdge 48948854#3 4038597 24846365 24846372#0 24846372#0-AddedOffRampEdge 4045553" probability="0.02" />
    <route id="24613154_to_4038595" edges="24613154 48948854#2-AddedOnRampEdge 48948854#2 48948854#3-AddedOnRampEdge 48948854#3 4038597 24846365 24846372#0 24846372#0-AddedOffRampEdge 24846372#1 24846372#2-AddedOnRampEdge 24846372#2 24846372#3-AddedOnRampEdge 24846372#3 4038595" probability="0.02" />

    <route id="4045551_to_4045553" edges="4045551 48948854#3-AddedOnRampEdge 48948854#3 4038597 24846365 24846372#0 24846372#0-AddedOffRampEdge 4045553" probability="0.02" />
    <route id="4045551_to_4038595" edges="4045551 48948854#3-AddedOnRampEdge 48948854#3 4038597 24846365 24846372#0 24846372#0-AddedOffRampEdge 24846372#1 24846372#2-AddedOnRampEdge 24846372#2 24846372#3-AddedOnRampEdge 24846372#3 4038595" probability="0.02" />

    <route id="24635567_to_4038595" edges="24635567 24846372#2-AddedOnRampEdge 24846372#2 24846372#3-AddedOnRampEdge 24846372#3 4038595" probability="0.02" />

    <route id="4045552_to_4038595" edges="4045552 24846372#3-AddedOnRampEdge 24846372#3 4038595" probability="0.02" />
  </routeDistribution>

  <vehicle id="v0" type="types" route="routes" depart="0.000000" departlane="random" departspeed="max" departpos="base" />
  <vehicle id="v1" type="types" route="routes" depart="0.500000" departlane="random" departspeed="max" departpos="base" />
  <vehicle id="v2" type="types" route="routes" depart="1.000000" departlane="random" departspeed="max" departpos="base" />
  <vehicle id="v3" type="types" route="routes" depart="1.500000" departlane="random" departspeed="max" departpos="base" />
  <vehicle id="v4" type="types" route="routes" depart="2.000000" departlane="random" departspeed="max" departpos="base" />
  <vehicle id="v5" type="types" route="routes" depart="2.500000" departlane="random" departspeed="max" departpos="base" />
  <vehicle id="v6" type="types" route="routes" depart="3.000000" departlane="random" departspeed="max" departpos="base" />
  <vehicle id="v7" type="types" route="routes" depart="3.500000" departlane="random" departspeed="max" departpos="base" />
  <vehicle id="v8" type="types" route="routes" depart="4.000000" departlane="random" departspeed="max" departpos="base" />
  <vehicle id="v9" type="types" route="routes" depart="4.500000" departlane="random" departspeed="max" departpos="base" />
  <vehicle id="v10" type="types" route="routes" depart="5.000000" departlane="random" departspeed="max" departpos="base" />
  <vehicle id="v11" type="types" route="routes" depart="5.500000" departlane="random" departspeed="max" departpos="base" />
  <vehicle id="v12" type="types" route="routes" depart="6.000000" departlane="random" departspeed="max" departpos="base" />
  <vehicle id="v13" type="types" route="routes" depart="6.500000" departlane="random" departspeed="max" departpos="base" />
  <vehicle id="v14" type="types" route="routes" depart="7.000000" departlane="random" departspeed="max" departpos="base" />
  <vehicle id="v15" type="types" route="routes" depart="7.500000" departlane="random" departspeed="max" departpos="base" />
  <vehicle id="v16" type="types" route="routes" depart="8.000000" departlane="random" departspeed="max" departpos="base" />
  <vehicle id="v17" type="types" route="routes" depart="8.500000" departlane="random" departspeed="max" departpos="base" />
  <vehicle id="v18" type="types" route="routes" depart="9.000000" departlane="random" departspeed="max" departpos="base" />
  <vehicle id="v19" type="types" route="routes" depart="9.500000" departlane="random" departspeed="max" departpos="base" />
  <vehicle id="v20" type="types" route="routes" depart="10.000000" departlane="random" departspeed="max" departpos="base" />
  <vehicle id="v21" type="types" route="routes" depart="10.500000" departlane="random" departspeed="max" departpos="base" />
  <vehicle id="v22" type="types" route="routes" depart="11.000000" departlane="random" departspeed="max" departpos="base" />
  <vehicle id="v23" type="types" route="routes" depart="11.500000" departlane="random" departspeed="max" departpos="base" />
  <vehicle id="v24" type="types" route="routes" depart="12.000000" departlane="random" departspeed="max" departpos="base" />
  <vehicle id="v25" type="types" route="routes" depart="12.500000" departlane="random" departspeed="max" departpos="base" />
  <vehicle id="v26" type="types" route="routes" depart="13.000000" departlane="random" departspeed="max" departpos="base" />
  <vehicle id="v27" type="types" route="routes" depart="13.500000" departlane="random" departspeed="max" departpos="base" />
  <vehicle id="v28" type="types" route="routes" depart="14.000000" departlane="random" departspeed="max" departpos="base" />
  <vehicle id="v29" type="types" route="routes" depart="14.500000" departlane="random" departspeed="max" departpos="base" />
  <vehicle id="v30" type="types" route="routes" depart="15.000000" departlane="random" departspeed="max" departpos="base" />
  <vehicle id="v31" type="types" route="routes" depart="15.500000" departlane="random" departspeed="max" departpos="base" />
  <vehicle id="v32" type="types" route="routes" depart="16.000000" departlane="random" departspeed="max" departpos="base" />
  <vehicle id="v33" type="types" route="routes" depart="16.500000" departlane="random" departspeed="max" departpos="base" />
  <vehicle id="v34" type="types" route="routes" depart="17.000000" departlane="random" departspeed="max" departpos="base" />
  <vehicle id="v35" type="types" route="routes" depart="17.500000" departlane="random" departspeed="max" departpos="base" />
  <vehicle id="v36" type="types" route="routes" depart="18.000000" departlane="random" departspeed="max" departpos="base" />
  <vehicle id="v37" type="types" route="routes" depart="18.500000" departlane="random" departspeed="max" departpos="base" />
  <vehicle id="v38" type="types" route="routes" depart="19.000000" departlane="random" departspeed="max" departpos="base" />
  <vehicle id="v39" type="types" route="routes" depart="19.500000" departlane="random" departspeed="max" departpos="base" />
  <vehicle id="v40" type="types" route="routes" depart="20.000000" departlane="random" departspeed="max" departpos="base" />
  <vehicle id="v41" type="types" route="routes" depart="20.500000" departlane="random" departspeed="max" departpos="base" />
  <vehicle id="v42" type="types" route="routes" depart="21.000000" departlane="random" departspeed="max" departpos="base" />
  <vehicle id="v43" type="types" route="routes" depart="21.500000" departlane="random" departspeed="max" departpos="base" />
  <vehicle id="v44" type="types" route="routes" depart="22.000000" departlane="random" departspeed="max" departpos="base" />
  <vehicle id="v45" type="types" route="routes" depart="22.500000" departlane="random" departspeed="max" departpos="base" />
  <vehicle id="v46" type="types" route="routes" depart="23.000000" departlane="random" departspeed="max" departpos="base" />
  <vehicle id="v47" type="types" route="routes" depart="23.500000" departlane="random" departspeed="max" departpos="base" />
  <vehicle id="v48" type="types" route="routes" depart="24.000000" departlane="random" departspeed="max" departpos="base" />
  <vehicle id="v49" type="types" route="routes" depart="24.500000" departlane="random" departspeed="max" departpos="base" />
  <vehicle id="v50" type="types" route="routes" depart="25.000000" departlane="random" departspeed="max" departpos="base" />
  <vehicle id="v51" type="types" route="routes" depart="25.500000" departlane="random" departspeed="max" departpos="base" />
  <vehicle id="v52" type="types" route="routes" depart="26.000000" departlane="random" departspeed="max" departpos="base" />
  <vehicle id="v53" type="types" route="routes" depart="26.500000" departlane="random" departspeed="max" departpos="base" />
  <vehicle id="v54" type="types" route="routes" depart="27.000000" departlane="random" departspeed="max" departpos="base" />
  <vehicle id="v55" type="types" route="routes" depart="27.500000" departlane="random" departspeed="max" departpos="base" />
  <vehicle id="v56" type="types" route="routes" depart="28.000000" departlane="random" departspeed="max" departpos="base" />
  <vehicle id="v57" type="types" route="routes" depart="28.500000" departlane="random" departspeed="max" departpos="base" />
  <vehicle id="v58" type="types" route="routes" depart="29.000000" departlane="random" departspeed="max" departpos="base" />
  <vehicle id="v59" type="types" route="routes" depart="29.500000" departlane="random" departspeed="max" departpos="base" />
  <vehicle id="v60" type="types" route="routes" depart="30.000000" departlane="random" departspeed="max" departpos="base" />
  <vehicle id="v61" type="types" route="routes" depart="30.500000" departlane="random" departspeed="max" departpos="base" />
  <vehicle id="v62" type="types" route="routes" depart="31.000000" departlane="random" departspeed="max" departpos="base" />
  <vehicle id="v63" type="types" route="routes" depart="31.500000" departlane="random" departspeed="max" departpos="base" />
  <vehicle id="v64" type="types" route="routes" depart="32.000000" departlane="random" departspeed="max" departpos="base" />
  <vehicle id="v65" type="types" route="routes" depart="32.500000" departlane="random" departspeed="max" departpos="base" />
  <vehicle id="v66" type="types" route="routes" depart="33.000000" departlane="random" departspeed="max" departpos="base" />
  <vehicle id="v67" type="types" route="routes" depart="33.500000" departlane="random" departspeed="max" departpos="base" />
  <vehicle id="v68" type="types" route="routes" depart="34.000000" departlane="random" departspeed="max" departpos="base" />
  <vehicle id="v69" type="types" route="routes" depart="34.500000" departlane="random" departspeed="max" departpos="base" />
  <vehicle id="v70" type="types" route="routes" depart="35.000000" departlane="random" departspeed="max" departpos="base" />
  <vehicle id="v71" type="types" route="routes" depart="35.500000" departlane="random" departspeed="max" departpos="base" />
  <vehicle id="v72" type="types" route="routes" depart="36.000000" departlane="random" departspeed="max" departpos="base" />
  <vehicle id="v73" type="types" route="routes" depart="36.500000" departlane="random" departspeed="max" departpos="base" />
  <vehicle id="v74" type="types" route="routes" depart="37.000000" departlane="random" departspeed="max" departpos="base" />
  <vehicle id="v75" type="types" route="routes" depart="37.500000" departlane="random" departspeed="max" departpos="base" />
  <vehicle id="v76" type="types" route="routes" depart="38.000000" departlane="random" departspeed="max" departpos="base" />
  <vehicle id="v77" type="types" route="routes" depart="38.500000" departlane="random" departspeed="max" departpos="base" />
  <vehicle id="v78" type="types" route="routes" depart="39.000000" departlane="random" departspeed="max" departpos="base" />
  <vehicle id="v79" type="types" route="routes" depart="39.500000" departlane="random" departspeed="max" departpos="base" />
  <vehicle id="v80" type="types" route="routes" depart="40.000000" departlane="random" departspeed="max" departpos="base" />
  <vehicle id="v81" type="types" route="routes" depart="40.500000" departlane="random" departspeed="max" departpos="base" />
  <vehicle id="v82" type="types" route="routes" depart="41.000000" departlane="random" departspeed="max" departpos="base" />
  <vehicle id="v83" type="types" route="routes" depart="41.500000" departlane="random" departspeed="max" departpos="base" />
  <vehicle id="v84" type="types" route="routes" depart="42.000000" departlane="random" departspeed="max" departpos="base" />
  <vehicle id="v85" type="types" route="routes" depart="42.500000" departlane="random" departspeed="max" departpos="base" />
  <vehicle id="v86" type="types" route="routes" depart="43.000000" departlane="random" departspeed="max" departpos="base" />
  <vehicle id="v87" type="types" route="routes" depart="43.500000" departlane="random" departspeed="max" departpos="base" />
  <vehicle id="v88" type="types" route="routes" depart="44.000000" departlane="random" departspeed="max" departpos="base" />
  <vehicle id="v89" type="types" route="routes" depart="44.500000" departlane="random" departspeed="max" departpos="base" />
  <vehicle id="v90" type="types" route="routes" depart="45.000000" departlane="random" departspeed="max" departpos="base" />
  <vehicle id="v91" type="types" route="routes" depart="45.500000" departlane="random" departspeed="max" departpos="base" />
  <vehicle id="v92" type="types" route="routes" depart="46.000000" departlane="random" departspeed="max" departpos="base" />
  <vehicle id="v93" type="types" route="routes" depart="46.500000" departlane="random" departspeed="max" departpos="base" />
  <vehicle id="v94" type="types" route="routes" depart="47.000000" departlane="random" departspeed="max" departpos="base" />
  <vehicle id="v95" type="types" route="routes" depart="47.500000" departlane="random" departspeed="max" departpos="base" />
  <vehicle id="v96" type="types" route="routes" depart="48.000000" departlane="random" departspeed="max" departpos="base" />
  <vehicle id="v97" type="types" route="routes" depart="48.500000" departlane="random" departspeed="max" departpos="base" />
  <vehicle id="v98" type="types" route="routes" depart="49.000000" departlane="random" departspeed="max" departpos="base" />
  <vehicle id="v99" type="types" route="routes" depart="49.500000" departlane="random" departspeed="max" departpos="base" />
  <vehicle id="v100" type="types" route="routes" depart="50.000000" departlane="random" departspeed="max" departpos="base" />
  <vehicle id="v101" type="types" route="routes" depart="50.500000" departlane="random" departspeed="max" departpos="base" />
  <vehicle id="v102" type="types" route="routes" depart="51.000000" departlane="random" departspeed="max" departpos="base" />
  <vehicle id="v103" type="types" route="routes" depart="51.500000" departlane="random" departspeed="max" departpos="base" />
  <vehicle id="v104" type="types" route="routes" depart="52.000000" departlane="random" departspeed="max" departpos="base" />
  <vehicle id="v105" type="types" route="routes" depart="52.500000" departlane="random" departspeed="max" departpos="base" />
  <vehicle id="v106" type="types" route="routes" depart="53.000000" departlane="random" departspeed="max" departpos="base" />
  <vehicle id="v107" type="types" route="routes" depart="53.500000" departlane="random" departspeed="max" departpos="base" />
  <vehicle id="v108" type="types" route="routes" depart="54.000000" departlane="random" departspeed="max" departpos="base" />
  <vehicle id="v109" type="types" route="routes" depart="54.500000" departlane="random" departspeed="max" departpos="base" />
  <vehicle id="v110" type="types" route="routes" depart="55.000000" departlane="random" departspeed="max" departpos="base" />
  <vehicle id="v111" type="types" route="routes" depart="55.500000" departlane="random" departspeed="max" departpos="base" />
  <vehicle id="v112" type="types" route="routes" depart="56.000000" departlane="random" departspeed="max" departpos="base" />
  <vehicle id="v113" type="types" route="routes" depart="56.500000" departlane="random" departspeed="max" departpos="base" />
  <vehicle id="v114" type="types" route="routes" depart="57.000000" departlane="random" departspeed="max" departpos="base" />
  <vehicle id="v115" type="types" route="routes" depart="57.500000" departlane="random" departspeed="max" departpos="base" />
  <vehicle id="v116" type="types" route="routes" depart="58.000000" departlane="random" departspeed="max" departpos="base" />
  <vehicle id="v117" type="types" route="routes" depart="58.500000" departlane="random" departspeed="max" departpos="base" />
  <vehicle id="v118" type="types" route="routes" depart="59.000000" departlane="random" departspeed="max" departpos="base" />
  <vehicle id="v119" type="types" route="routes" depart="59.500000" departlane="random" departspeed="max" departpos="base" />
  <vehicle id="v120" type="types" route="routes" depart="60.000000" departlane="random" departspeed="max" departpos="base" />
  <vehicle id="v121" type="types" route="routes" depart="60.500000" departlane="random" departspeed="max" departpos="base" />
  <vehicle id="v122" type="types" route="routes" depart="61.000000" departlane="random" departspeed="max" departpos="base" />
  <vehicle id="v123" type="types" route="routes" depart="61.500000" departlane="random" departspeed="max" departpos="base" />
  <vehicle id="v124" type="types" route="routes" depart="62.000000" departlane="random" departspeed="max" departpos="base" />
  <vehicle id="v125" type="types" route="routes" depart="62.500000" departlane="random" departspeed="max" departpos="base" />
  <vehicle id="v126" type="types" route="routes" depart="63.000000" departlane="random" departspeed="max" departpos="base" />
  <vehicle id="v127" type="types" route="routes" depart="63.500000" departlane="random" departspeed="max" departpos="base" />
  <vehicle id="v128" type="types" route="routes" depart="64.000000" departlane="random" departspeed="max" departpos="base" />
  <vehicle id="v129" type="types" route="routes" depart="64.500000" departlane="random" departspeed="max" departpos="base" />
  <vehicle id="v130" type="types" route="routes" depart="65.000000" departlane="random" departspeed="max" departpos="base" />
  <vehicle id="v131" type="types" route="routes" depart="65.500000" departlane="random" departspeed="max" departpos="base" />
  <vehicle id="v132" type="types" route="routes" depart="66.000000" departlane="random" departspeed="max" departpos="base" />
  <vehicle id="v133" type="types" route="routes" depart="66.500000" departlane="random" departspeed="max" departpos="base" />
  <vehicle id="v134" type="types" route="routes" depart="67.000000" departlane="random" departspeed="max" departpos="base" />
  <vehicle id="v135" type="types" route="routes" depart="67.500000" departlane="random" departspeed="max" departpos="base" />
  <vehicle id="v136" type="types" route="routes" depart="68.000000" departlane="random" departspeed="max" departpos="base" />
  <vehicle id="v137" type="types" route="routes" depart="68.500000" departlane="random" departspeed="max" departpos="base" />
  <vehicle id="v138" type="types" route="routes" depart="69.000000" departlane="random" departspeed="max" departpos="base" />
  <vehicle id="v139" type="types" route="routes" depart="69.500000" departlane="random" departspeed="max" departpos="base" />
  <vehicle id="v140" type="types" route="routes" depart="70.000000" departlane="random" departspeed="max" departpos="base" />
  <vehicle id="v141" type="types" route="routes" depart="70.500000" departlane="random" departspeed="max" departpos="base" />
  <vehicle id="v142" type="types" route="routes" depart="71.000000" departlane="random" departspeed="max" departpos="base" />
  <vehicle id="v143" type="types" route="routes" depart="71.500000" departlane="random" departspeed="max" departpos="base" />
  <vehicle id="v144" type="types" route="routes" depart="72.000000" departlane="random" departspeed="max" departpos="base" />
  <vehicle id="v145" type="types" route="routes" depart="72.500000" departlane="random" departspeed="max" departpos="base" />
  <vehicle id="v146" type="types" route="routes" depart="73.000000" departlane="random" departspeed="max" departpos="base" />
  <vehicle id="v147" type="types" route="routes" depart="73.500000" departlane="random" departspeed="max" departpos="base" />
  <vehicle id="v148" type="types" route="routes" depart="74.000000" departlane="random" departspeed="max" departpos="base" />
  <vehicle id="v149" type="types" route="routes" depart="74.500000" departlane="random" departspeed="max" departpos="base" />
  <vehicle id="v150" type="types" route="routes" depart="75.000000" departlane="random" departspeed="max" departpos="base" />
  <vehicle id="v151" type="types" route="routes" depart="75.500000" departlane="random" departspeed="max" departpos="base" />
  <vehicle id="v152" type="types" route="routes" depart="76.000000" departlane="random" departspeed="max" departpos="base" />
  <vehicle id="v153" type="types" route="routes" depart="76.500000" departlane="random" departspeed="max" departpos="base" />
  <vehicle id="v154" type="types" route="routes" depart="77.000000" departlane="random" departspeed="max" departpos="base" />
  <vehicle id="v155" type="types" route="routes" depart="77.500000" departlane="random" departspeed="max" departpos="base" />
  <vehicle id="v156" type="types" route="routes" depart="78.000000" departlane="random" departspeed="max" departpos="base" />
  <vehicle id="v157" type="types" route="routes" depart="78.500000" departlane="random" departspeed="max" departpos="base" />
  <vehicle id="v158" type="types" route="routes" depart="79.000000" departlane="random" departspeed="max" departpos="base" />
  <vehicle id="v159" type="types" route="routes" depart="79.500000" departlane="random" departspeed="max" departpos="base" />
  <vehicle id="v160" type="types" route="routes" depart="80.000000" departlane="random" departspeed="max" departpos="base" />
  <vehicle id="v161" type="types" route="routes" depart="80.500000" departlane="random" departspeed="max" departpos="base" />
  <vehicle id="v162" type="types" route="routes" depart="81.000000" departlane="random" departspeed="max" departpos="base" />
  <vehicle id="v163" type="types" route="routes" depart="81.500000" departlane="random" departspeed="max" departpos="base" />
  <vehicle id="v164" type="types" route="routes" depart="82.000000" departlane="random" departspeed="max" departpos="base" />
  <vehicle id="v165" type="types" route="routes" depart="82.500000" departlane="random" departspeed="max" departpos="base" />
  <vehicle id="v166" type="types" route="routes" depart="83.000000" departlane="random" departspeed="max" departpos="base" />
  <vehicle id="v167" type="types" route="routes" depart="83.500000" departlane="random" departspeed="max" departpos="base" />
  <vehicle id="v168" type="types" route="routes" depart="84.000000" departlane="random" departspeed="max" departpos="base" />
  <vehicle id="v169" type="types" route="routes" depart="84.500000" departlane="random" departspeed="max" departpos="base" />
  <vehicle id="v170" type="types" route="routes" depart="85.000000" departlane="random" departspeed="max" departpos="base" />
  <vehicle id="v171" type="types" route="routes" depart="85.500000" departlane="random" departspeed="max" departpos="base" />
  <vehicle id="v172" type="types" route="routes" depart="86.000000" departlane="random" departspeed="max" departpos="base" />
  <vehicle id="v173" type="types" route="routes" depart="86.500000" departlane="random" departspeed="max" departpos="base" />
  <vehicle id="v174" type="types" route="routes" depart="87.000000" departlane="random" departspeed="max" departpos="base" />
  <vehicle id="v175" type="types" route="routes" depart="87.500000" departlane="random" departspeed="max" departpos="base" />
  <vehicle id="v176" type="types" route="routes" depart="88.000000" departlane="random" departspeed="max" departpos="base" />
  <vehicle id="v177" type="types" route="routes" depart="88.500000" departlane="random" departspeed="max" departpos="base" />
  <vehicle id="v178" type="types" route="routes" depart="89.000000" departlane="random" departspeed="max" departpos="base" />
  <vehicle id="v179" type="types" route="routes" depart="89.500000" departlane="random" departspeed="max" departpos="base" />
  <vehicle id="v180" type="types" route="routes" depart="90.000000" departlane="random" departspeed="max" departpos="base" />
  <vehicle id="v181" type="types" route="routes" depart="90.500000" departlane="random" departspeed="max" departpos="base" />
  <vehicle id="v182" type="types" route="routes" depart="91.000000" departlane="random" departspeed="max" departpos="base" />
  <vehicle id="v183" type="types" route="routes" depart="91.500000" departlane="random" departspeed="max" departpos="base" />
  <vehicle id="v184" type="types" route="routes" depart="92.000000" departlane="random" departspeed="max" departpos="base" />
  <vehicle id="v185" type="types" route="routes" depart="92.500000" departlane="random" departspeed="max" departpos="base" />
  <vehicle id="v186" type="types" route="routes" depart="93.000000" departlane="random" departspeed="max" departpos="base" />
  <vehicle id="v187" type="types" route="routes" depart="93.500000" departlane="random" departspeed="max" departpos="base" />
  <vehicle id="v188" type="types" route="routes" depart="94.000000" departlane="random" departspeed="max" departpos="base" />
  <vehicle id="v189" type="types" route="routes" depart="94.500000" departlane="random" departspeed="max" departpos="base" />
  <vehicle id="v190" type="types" route="routes" depart="95.000000" departlane="random" departspeed="max" departpos="base" />
  <vehicle id="v191" type="types" route="routes" depart="95.500000" departlane="random" departspeed="max" departpos="base" />
  <vehicle id="v192" type="types" route="routes" depart="96.000000" departlane="random" departspeed="max" departpos="base" />
  <vehicle id="v193" type="types" route="routes" depart="96.500000" departlane="random" departspeed="max" departpos="base" />
  <vehicle id="v194" type="types" route="routes" depart="97.000000" departlane="random" departspeed="max" departpos="base" />
  <vehicle id="v195" type="types" route="routes" depart="97.500000" departlane="random" departspeed="max" departpos="base" />
  <vehicle id="v196" type="types" route="routes" depart="98.000000" departlane="random" departspeed="max" departpos="base" />
  <vehicle id="v197" type="types" route="routes" depart="98.500000" departlane="random" departspeed="max" departpos="base" />
  <vehicle id="v198" type="types" route="routes" depart="99.000000" departlane="random" departspeed="max" departpos="base" />
  <vehicle id="v199" type="types" route="routes" depart="99.500000" departlane="random" departspeed="max" departpos="base" />
  <vehicle id="v200" type="types" route="routes" depart="100.000000" departlane="random" departspeed="max" departpos="base" />
  <vehicle id="v201" type="types" route="routes" depart="100.500000" departlane="random" departspeed="max" departpos="base" />
  <vehicle id="v202" type="types" route="routes" depart="101.000000" departlane="random" departspeed="max" departpos="base" />
  <vehicle id="v203" type="types" route="routes" depart="101.500000" departlane="random" departspeed="max" departpos="base" />
  <vehicle id="v204" type="types" route="routes" depart="102.000000" departlane="random" departspeed="max" departpos="base" />
  <vehicle id="v205" type="types" route="routes" depart="102.500000" departlane="random" departspeed="max" departpos="base" />
  <vehicle id="v206" type="types" route="routes" depart="103.000000" departlane="random" departspeed="max" departpos="base" />
  <vehicle id="v207" type="types" route="routes" depart="103.500000" departlane="random" departspeed="max" departpos="base" />
  <vehicle id="v208" type="types" route="routes" depart="104.000000" departlane="random" departspeed="max" departpos="base" />
  <vehicle id="v209" type="types" route="routes" depart="104.500000" departlane="random" departspeed="max" departpos="base" />
  <vehicle id="v210" type="types" route="routes" depart="105.000000" departlane="random" departspeed="max" departpos="base" />
  <vehicle id="v211" type="types" route="routes" depart="105.500000" departlane="random" departspeed="max" departpos="base" />
  <vehicle id="v212" type="types" route="routes" depart="106.000000" departlane="random" departspeed="max" departpos="base" />
  <vehicle id="v213" type="types" route="routes" depart="106.500000" departlane="random" departspeed="max" departpos="base" />
  <vehicle id="v214" type="types" route="routes" depart="107.000000" departlane="random" departspeed="max" departpos="base" />
  <vehicle id="v215" type="types" route="routes" depart="107.500000" departlane="random" departspeed="max" departpos="base" />
  <vehicle id="v216" type="types" route="routes" depart="108.000000" departlane="random" departspeed="max" departpos="base" />
  <vehicle id="v217" type="types" route="routes" depart="108.500000" departlane="random" departspeed="max" departpos="base" />
  <vehicle id="v218" type="types" route="routes" depart="109.000000" departlane="random" departspeed="max" departpos="base" />