<?xml version="1.0"?>

<!-- generated on 03/30/11 11:58:31 by SUMO netconvert Version 0.12.3
<?xml version="1.0" encoding="iso-8859-1"?>

<configuration xmlns:xsi="http://www.w3.org/2001/XMLSchema-instance" xsi:noNamespaceSchemaLocation="http://sumo.sf.net/xsd/netconvertConfiguration.xsd">

    <input>
        <osm-files value="highway2.osm"/>
    </input>

    <output>
        <output-file value="highway.net.xml"/>
    </output>

    <projection>
        <proj.utm value="true"/>
    </projection>

    <tls_building>
        <try-join-tls value="true"/>
    </tls_building>

    <ramp_guessing>
        <guess-ramps value="true"/>
    </ramp_guessing>

    <building_defaults>
        <speed value="28.3"/>
    </building_defaults>

</configuration>
-->

<net>

   <location netOffset="-584360.98,-4817355.41" convBoundary="0.00,0.00,10354.94,7791.58" origBoundary="-79.956426,43.504366,-79.827006,43.573273" projParameter="+proj=utm +zone=17 +ellps=WGS84 +datum=WGS84 +units=m +no_defs"/>

   <edge id=":-19164_0" function="internal">
      <lanes>
         <lane id=":-19164_0_0" depart="0" maxspeed="25.00" length="3.54" shape="7748.52,4528.53 7745.99,4526.05"/>
      </lanes>
   </edge>
   <edge id=":-19164_1" function="internal">
      <lanes>
         <lane id=":-19164_1_0" depart="0" maxspeed="27.78" length="2.68" shape="7751.09,4526.45 7749.44,4524.34"/>
      </lanes>
   </edge>
   <edge id=":-19164_2" function="internal">
      <lanes>
         <lane id=":-19164_2_0" depart="0" maxspeed="27.78" length="2.68" shape="7753.65,4524.37 7752.00,4522.26"/>
      </lanes>
   </edge>
   <edge id=":-19164_3" function="internal">
      <lanes>
         <lane id=":-19164_3_0" depart="0" maxspeed="27.78" length="2.68" shape="7756.21,4522.29 7754.56,4520.18"/>
      </lanes>
   </edge>
   <edge id=":21380089_0" function="internal">
      <lanes>
         <lane id=":21380089_0_0" depart="0" maxspeed="27.78" length="0.10" shape="2902.69,2344.03 2902.69,2344.03"/>
      </lanes>
   </edge>
   <edge id=":21380089_1" function="internal">
      <lanes>
         <lane id=":21380089_1_0" depart="0" maxspeed="27.78" length="0.10" shape="2902.12,2347.28 2902.14,2347.28"/>
      </lanes>
   </edge>
   <edge id=":21380089_2" function="internal">
      <lanes>
         <lane id=":21380089_2_0" depart="0" maxspeed="27.78" length="0.10" shape="2901.55,2350.53 2901.59,2350.54"/>
      </lanes>
   </edge>
   <edge id=":21380090_0" function="internal">
      <lanes>
         <lane id=":21380090_0_0" depart="0" maxspeed="27.78" length="0.10" shape="2899.75,2378.39 2899.73,2378.39"/>
      </lanes>
   </edge>
   <edge id=":21380090_1" function="internal">
      <lanes>
         <lane id=":21380090_1_0" depart="0" maxspeed="27.78" length="0.10" shape="2900.31,2375.14 2900.29,2375.14"/>
      </lanes>
   </edge>
   <edge id=":21380090_2" function="internal">
      <lanes>
         <lane id=":21380090_2_0" depart="0" maxspeed="27.78" length="0.10" shape="2900.87,2371.89 2900.86,2371.89"/>
      </lanes>
   </edge>
   <edge id=":21380145_0" function="internal">
      <lanes>
         <lane id=":21380145_0_0" depart="0" maxspeed="27.78" length="0.10" shape="6621.15,3890.65 6621.15,3890.65"/>
      </lanes>
   </edge>
   <edge id=":21380145_1" function="internal">
      <lanes>
         <lane id=":21380145_1_0" depart="0" maxspeed="27.78" length="0.10" shape="6620.39,3893.86 6620.48,3893.88"/>
      </lanes>
   </edge>
   <edge id=":21380145_2" function="internal">
      <lanes>
         <lane id=":21380145_2_0" depart="0" maxspeed="27.78" length="0.23" shape="6619.64,3897.08 6619.86,3897.13"/>
      </lanes>
   </edge>
   <edge id=":21380146_0" function="internal">
      <lanes>
         <lane id=":21380146_0_0" depart="0" maxspeed="27.78" length="0.12" shape="6615.16,3922.60 6615.04,3922.57"/>
      </lanes>
   </edge>
   <edge id=":21380146_1" function="internal">
      <lanes>
         <lane id=":21380146_1_0" depart="0" maxspeed="27.78" length="0.10" shape="6615.85,3919.37 6615.78,3919.35"/>
      </lanes>
   </edge>
   <edge id=":21380146_2" function="internal">
      <lanes>
         <lane id=":21380146_2_0" depart="0" maxspeed="27.78" length="0.10" shape="6616.54,3916.14 6616.52,3916.14"/>
      </lanes>
   </edge>
   <edge id=":21380148_0" function="internal">
      <lanes>
         <lane id=":21380148_0_0" depart="0" maxspeed="25.00" length="7.25" shape="3589.07,2459.28 3590.85,2466.31"/>
      </lanes>
   </edge>
   <edge id=":21380148_1" function="internal">
      <lanes>
         <lane id=":21380148_1_0" depart="0" maxspeed="27.78" length="3.02" shape="3588.54,2462.53 3591.50,2463.12"/>
      </lanes>
   </edge>
   <edge id=":21380148_2" function="internal">
      <lanes>
         <lane id=":21380148_2_0" depart="0" maxspeed="27.78" length="2.88" shape="3588.02,2465.79 3590.84,2466.36"/>
      </lanes>
   </edge>
   <edge id=":21380148_3" function="internal">
      <lanes>
         <lane id=":21380148_3_0" depart="0" maxspeed="27.78" length="2.75" shape="3587.49,2469.05 3590.18,2469.59"/>
      </lanes>
   </edge>
   <edge id=":21380157_0" function="internal">
      <lanes>
         <lane id=":21380157_0_0" depart="0" maxspeed="25.00" length="3.37" shape="3795.06,2541.75 3791.86,2540.69"/>
      </lanes>
   </edge>
   <edge id=":21380157_1" function="internal">
      <lanes>
         <lane id=":21380157_1_0" depart="0" maxspeed="27.78" length="4.99" shape="3795.06,2541.74 3792.51,2537.45"/>
      </lanes>
   </edge>
   <edge id=":21380157_2" function="internal">
      <lanes>
         <lane id=":21380157_2_0" depart="0" maxspeed="27.78" length="4.78" shape="3795.46,2538.40 3793.15,2534.22"/>
      </lanes>
   </edge>
   <edge id=":21380157_3" function="internal">
      <lanes>
         <lane id=":21380157_3_0" depart="0" maxspeed="27.78" length="3.92" shape="3794.91,2534.74 3793.79,2530.98"/>
      </lanes>
   </edge>
   <edge id=":21380160_0" function="internal">
      <lanes>
         <lane id=":21380160_0_0" depart="0" maxspeed="27.78" length="0.10" shape="4797.54,3111.21 4797.54,3111.21"/>
      </lanes>
   </edge>
   <edge id=":21380160_1" function="internal">
      <lanes>
         <lane id=":21380160_1_0" depart="0" maxspeed="27.78" length="0.10" shape="4795.76,3113.99 4795.76,3113.99"/>
      </lanes>
   </edge>
   <edge id=":21380160_2" function="internal">
      <lanes>
         <lane id=":21380160_2_0" depart="0" maxspeed="27.78" length="0.10" shape="4793.98,3116.77 4793.98,3116.77"/>
      </lanes>
   </edge>
   <edge id=":21380161_0" function="internal">
      <lanes>
         <lane id=":21380161_0_0" depart="0" maxspeed="27.78" length="0.10" shape="4770.88,3137.24 4770.88,3137.24"/>
      </lanes>
   </edge>
   <edge id=":21380161_1" function="internal">
      <lanes>
         <lane id=":21380161_1_0" depart="0" maxspeed="27.78" length="0.10" shape="4772.63,3134.44 4772.58,3134.41"/>
      </lanes>
   </edge>
   <edge id=":21380161_2" function="internal">
      <lanes>
         <lane id=":21380161_2_0" depart="0" maxspeed="27.78" length="0.18" shape="4774.43,3131.67 4774.28,3131.58"/>
      </lanes>
   </edge>
   <edge id=":21380162_0" function="internal">
      <lanes>
         <lane id=":21380162_0_0" depart="0" maxspeed="27.78" length="0.10" shape="4872.53,3159.22 4872.53,3159.23"/>
      </lanes>
   </edge>
   <edge id=":21380162_1" function="internal">
      <lanes>
         <lane id=":21380162_1_0" depart="0" maxspeed="27.78" length="0.10" shape="4870.74,3162.00 4870.75,3162.00"/>
      </lanes>
   </edge>
   <edge id=":21380162_2" function="internal">
      <lanes>
         <lane id=":21380162_2_0" depart="0" maxspeed="27.78" length="0.10" shape="4868.95,3164.77 4868.96,3164.78"/>
      </lanes>
   </edge>
   <edge id=":21380163_0" function="internal">
      <lanes>
         <lane id=":21380163_0_0" depart="0" maxspeed="27.78" length="0.21" shape="4853.53,3186.77 4853.35,3186.66"/>
      </lanes>
   </edge>
   <edge id=":21380163_1" function="internal">
      <lanes>
         <lane id=":21380163_1_0" depart="0" maxspeed="27.78" length="0.12" shape="4855.26,3183.96 4855.15,3183.89"/>
      </lanes>
   </edge>
   <edge id=":21380163_2" function="internal">
      <lanes>
         <lane id=":21380163_2_0" depart="0" maxspeed="27.78" length="0.10" shape="4856.99,3181.14 4856.95,3181.12"/>
      </lanes>
   </edge>
   <edge id=":21380178_0" function="internal">
      <lanes>
         <lane id=":21380178_0_0" depart="0" maxspeed="25.00" length="7.68" shape="6955.63,3965.83 6957.66,3973.23"/>
      </lanes>
   </edge>
   <edge id=":21380178_1" function="internal">
      <lanes>
         <lane id=":21380178_1_0" depart="0" maxspeed="27.78" length="4.12" shape="6954.87,3969.04 6958.81,3970.26"/>
      </lanes>
   </edge>
   <edge id=":21380178_2" function="internal">
      <lanes>
         <lane id=":21380178_2_0" depart="0" maxspeed="27.78" length="3.67" shape="6954.12,3972.25 6957.62,3973.34"/>
      </lanes>
   </edge>
   <edge id=":21380178_3" function="internal">
      <lanes>
         <lane id=":21380178_3_0" depart="0" maxspeed="27.78" length="3.21" shape="6953.36,3975.47 6956.43,3976.41"/>
      </lanes>
   </edge>
   <edge id=":21380181_0" function="internal">
      <lanes>
         <lane id=":21380181_0_0" depart="0" maxspeed="25.00" length="3.30" shape="6981.36,4010.33 6978.23,4009.29"/>
      </lanes>
   </edge>
   <edge id=":21380181_1" function="internal">
      <lanes>
         <lane id=":21380181_1_0" depart="0" maxspeed="27.78" length="4.79" shape="6977.90,4010.74 6978.97,4006.07"/>
      </lanes>
   </edge>
   <edge id=":21380181_2" function="internal">
      <lanes>
         <lane id=":21380181_2_0" depart="0" maxspeed="27.78" length="6.38" shape="6982.00,4008.80 6979.70,4002.86"/>
      </lanes>
   </edge>
   <edge id=":21380181_3" function="internal">
      <lanes>
         <lane id=":21380181_3_0" depart="0" maxspeed="27.78" length="5.58" shape="6981.58,4005.10 6980.44,3999.64"/>
      </lanes>
   </edge>
   <edge id=":21380185_0" function="internal">
      <lanes>
         <lane id=":21380185_0_0" depart="0" maxspeed="25.00" length="7.28" shape="7590.34,4320.37 7597.01,4317.43"/>
      </lanes>
   </edge>
   <edge id=":21380185_1" function="internal">
      <lanes>
         <lane id=":21380185_1_0" depart="0" maxspeed="27.78" length="2.26" shape="7593.06,4318.46 7594.81,4319.89"/>
      </lanes>
   </edge>
   <edge id=":21380185_2" function="internal">
      <lanes>
         <lane id=":21380185_2_0" depart="0" maxspeed="27.78" length="3.01" shape="7590.24,4320.48 7592.61,4322.35"/>
      </lanes>
   </edge>
   <edge id=":21380185_3" function="internal">
      <lanes>
         <lane id=":21380185_3_0" depart="0" maxspeed="27.78" length="0.10" shape="7590.45,4324.75 7590.40,4324.81"/>
      </lanes>
   </edge>
   <edge id=":21380186_0" function="internal">
      <lanes>
         <lane id=":21380186_0_0" depart="0" maxspeed="25.00" length="7.23" shape="7959.23,4733.05 7966.25,4731.28"/>
      </lanes>
   </edge>
   <edge id=":21380186_1" function="internal">
      <lanes>
         <lane id=":21380186_1_0" depart="0" maxspeed="27.78" length="2.19" shape="7962.26,4731.65 7963.66,4733.33"/>
      </lanes>
   </edge>
   <edge id=":21380186_2" function="internal">
      <lanes>
         <lane id=":21380186_2_0" depart="0" maxspeed="27.78" length="2.97" shape="7959.18,4733.09 7961.07,4735.38"/>
      </lanes>
   </edge>
   <edge id=":21380186_3" function="internal">
      <lanes>
         <lane id=":21380186_3_0" depart="0" maxspeed="27.78" length="0.10" shape="7958.46,4737.45 7958.49,4737.43"/>
      </lanes>
   </edge>
   <edge id=":24846372#0-AddedOffRampNode_0" function="internal">
      <lanes>
         <lane id=":24846372#0-AddedOffRampNode_0_0" depart="0" maxspeed="27.78" length="4.50" shape="4612.27,3034.33 4607.93,3035.51"/>
      </lanes>
   </edge>
   <edge id=":24846372#0-AddedOffRampNode_1" function="internal">
      <lanes>
         <lane id=":24846372#0-AddedOffRampNode_1_0" depart="0" maxspeed="27.78" length="3.00" shape="4612.27,3034.33 4609.73,3032.74"/>
      </lanes>
   </edge>
   <edge id=":24846372#0-AddedOffRampNode_2" function="internal">
      <lanes>
         <lane id=":24846372#0-AddedOffRampNode_2_0" depart="0" maxspeed="27.78" length="3.00" shape="4614.07,3031.56 4611.52,3029.97"/>
      </lanes>
   </edge>
   <edge id=":24846372#0-AddedOffRampNode_3" function="internal">
      <lanes>
         <lane id=":24846372#0-AddedOffRampNode_3_0" depart="0" maxspeed="27.78" length="3.00" shape="4615.86,3028.80 4613.32,3027.21"/>
      </lanes>
   </edge>
   <edge id=":24846372#2-AddedOnRampNode_0" function="internal">
      <lanes>
         <lane id=":24846372#2-AddedOnRampNode_0_0" depart="0" maxspeed="27.78" length="3.00" shape="4018.83,2649.12 4016.33,2647.46"/>
      </lanes>
   </edge>
   <edge id=":24846372#2-AddedOnRampNode_1" function="internal">
      <lanes>
         <lane id=":24846372#2-AddedOnRampNode_1_0" depart="0" maxspeed="27.78" length="3.00" shape="4020.61,2646.35 4018.12,2644.68"/>
      </lanes>
   </edge>
   <edge id=":24846372#2-AddedOnRampNode_2" function="internal">
      <lanes>
         <lane id=":24846372#2-AddedOnRampNode_2_0" depart="0" maxspeed="27.78" length="3.00" shape="4022.40,2643.57 4019.90,2641.91"/>
      </lanes>
   </edge>
   <edge id=":24846372#3-AddedOnRampNode_0" function="internal">
      <lanes>
         <lane id=":24846372#3-AddedOnRampNode_0_0" depart="0" maxspeed="27.78" length="3.00" shape="3671.46,2513.36 3668.53,2512.73"/>
      </lanes>
   </edge>
   <edge id=":24846372#3-AddedOnRampNode_1" function="internal">
      <lanes>
         <lane id=":24846372#3-AddedOnRampNode_1_0" depart="0" maxspeed="27.78" length="3.00" shape="3672.10,2510.13 3669.17,2509.49"/>
      </lanes>
   </edge>
   <edge id=":24846372#3-AddedOnRampNode_2" function="internal">
      <lanes>
         <lane id=":24846372#3-AddedOnRampNode_2_0" depart="0" maxspeed="27.78" length="3.00" shape="3672.75,2506.89 3669.82,2506.26"/>
      </lanes>
   </edge>
   <edge id=":267557807_0" function="internal">
      <lanes>
         <lane id=":267557807_0_0" depart="0" maxspeed="25.00" length="3.21" shape="7529.71,4315.36 7527.50,4313.03"/>
      </lanes>
   </edge>
   <edge id=":267557807_1" function="internal">
      <lanes>
         <lane id=":267557807_1_0" depart="0" maxspeed="27.78" length="2.69" shape="7531.68,4312.00 7529.51,4310.41"/>
      </lanes>
   </edge>
   <edge id=":267557807_2" function="internal">
      <lanes>
         <lane id=":267557807_2_0" depart="0" maxspeed="27.78" length="1.60" shape="7532.82,4308.73 7531.52,4307.79"/>
      </lanes>
   </edge>
   <edge id=":267557807_3" function="internal">
      <lanes>
         <lane id=":267557807_3_0" depart="0" maxspeed="27.78" length="0.52" shape="7533.97,4305.45 7533.53,4305.18"/>
      </lanes>
   </edge>
   <edge id=":267795378_0" function="internal">
      <lanes>
         <lane id=":267795378_0_0" depart="0" maxspeed="25.00" length="3.07" shape="4175.71,2754.33 4173.32,2752.41"/>
      </lanes>
   </edge>
   <edge id=":267795378_1" function="internal">
      <lanes>
         <lane id=":267795378_1_0" depart="0" maxspeed="27.78" length="2.51" shape="4177.25,2750.95 4175.11,2749.63"/>
      </lanes>
   </edge>
   <edge id=":267795378_2" function="internal">
      <lanes>
         <lane id=":267795378_2_0" depart="0" maxspeed="27.78" length="1.50" shape="4178.18,2747.63 4176.89,2746.85"/>
      </lanes>
   </edge>
   <edge id=":267795378_3" function="internal">
      <lanes>
         <lane id=":267795378_3_0" depart="0" maxspeed="27.78" length="0.48" shape="4179.11,2744.30 4178.68,2744.08"/>
      </lanes>
   </edge>
   <edge id=":269952138_0" function="internal">
      <lanes>
         <lane id=":269952138_0_0" depart="0" maxspeed="25.00" length="7.21" shape="4526.56,2982.72 4527.61,2975.58"/>
      </lanes>
   </edge>
   <edge id=":269952138_1" function="internal">
      <lanes>
         <lane id=":269952138_1_0" depart="0" maxspeed="27.78" length="3.01" shape="4528.35,2979.95 4525.86,2978.26"/>
      </lanes>
   </edge>
   <edge id=":269952138_2" function="internal">
      <lanes>
         <lane id=":269952138_2_0" depart="0" maxspeed="27.78" length="3.00" shape="4530.15,2977.18 4527.67,2975.50"/>
      </lanes>
   </edge>
   <edge id=":269952138_3" function="internal">
      <lanes>
         <lane id=":269952138_3_0" depart="0" maxspeed="27.78" length="2.98" shape="4531.94,2974.41 4529.48,2972.74"/>
      </lanes>
   </edge>
   <edge id=":271732681_0" function="internal">
      <lanes>
         <lane id=":271732681_0_0" depart="0" maxspeed="25.00" length="3.16" shape="4103.13,2659.08 4105.69,2660.94"/>
      </lanes>
   </edge>
   <edge id=":271732681_1" function="internal">
      <lanes>
         <lane id=":271732681_1_0" depart="0" maxspeed="27.78" length="0.10" shape="4103.86,2663.76 4103.89,2663.71"/>
      </lanes>
   </edge>
   <edge id=":271732681_2" function="internal">
      <lanes>
         <lane id=":271732681_2_0" depart="0" maxspeed="27.78" length="0.10" shape="4102.06,2666.52 4102.09,2666.47"/>
      </lanes>
   </edge>
   <edge id=":271732681_3" function="internal">
      <lanes>
         <lane id=":271732681_3_0" depart="0" maxspeed="27.78" length="0.10" shape="4100.26,2669.29 4100.29,2669.24"/>
      </lanes>
   </edge>
   <edge id=":271732977_0" function="internal">
      <lanes>
         <lane id=":271732977_0_0" depart="0" maxspeed="25.00" length="3.20" shape="4453.13,2885.61 4455.71,2887.50"/>
      </lanes>
   </edge>
   <edge id=":271732977_1" function="internal">
      <lanes>
         <lane id=":271732977_1_0" depart="0" maxspeed="27.78" length="0.10" shape="4453.89,2890.32 4453.92,2890.28"/>
      </lanes>
   </edge>
   <edge id=":271732977_2" function="internal">
      <lanes>
         <lane id=":271732977_2_0" depart="0" maxspeed="27.78" length="0.10" shape="4452.11,2893.10 4452.14,2893.06"/>
      </lanes>
   </edge>
   <edge id=":271732977_3" function="internal">
      <lanes>
         <lane id=":271732977_3_0" depart="0" maxspeed="27.78" length="0.10" shape="4450.33,2895.88 4450.35,2895.83"/>
      </lanes>
   </edge>
   <edge id=":4038596#0-AddedOffRampNode_0" function="internal">
      <lanes>
         <lane id=":4038596#0-AddedOffRampNode_0_0" depart="0" maxspeed="27.78" length="4.46" shape="3489.81,2446.61 3493.27,2443.79"/>
      </lanes>
   </edge>
   <edge id=":4038596#0-AddedOffRampNode_1" function="internal">
      <lanes>
         <lane id=":4038596#0-AddedOffRampNode_1_0" depart="0" maxspeed="27.78" length="2.96" shape="3489.81,2446.61 3492.74,2447.05"/>
      </lanes>
   </edge>
   <edge id=":4038596#0-AddedOffRampNode_2" function="internal">
      <lanes>
         <lane id=":4038596#0-AddedOffRampNode_2_0" depart="0" maxspeed="27.78" length="3.00" shape="3489.24,2449.86 3492.21,2450.31"/>
      </lanes>
   </edge>
   <edge id=":4038596#0-AddedOffRampNode_3" function="internal">
      <lanes>
         <lane id=":4038596#0-AddedOffRampNode_3_0" depart="0" maxspeed="27.78" length="3.04" shape="3488.68,2453.11 3491.69,2453.57"/>
      </lanes>
   </edge>
   <edge id=":4038596#2-AddedOnRampNode_0" function="internal">
      <lanes>
         <lane id=":4038596#2-AddedOnRampNode_0_0" depart="0" maxspeed="27.78" length="3.00" shape="4238.66,2751.48 4241.15,2753.16"/>
      </lanes>
   </edge>
   <edge id=":4038596#2-AddedOnRampNode_1" function="internal">
      <lanes>
         <lane id=":4038596#2-AddedOnRampNode_1_0" depart="0" maxspeed="27.78" length="3.00" shape="4236.86,2754.24 4239.35,2755.92"/>
      </lanes>
   </edge>
   <edge id=":4038596#2-AddedOnRampNode_2" function="internal">
      <lanes>
         <lane id=":4038596#2-AddedOnRampNode_2_0" depart="0" maxspeed="27.78" length="3.00" shape="4235.06,2757.01 4237.55,2758.69"/>
      </lanes>
   </edge>
   <edge id=":4038596#3-AddedOnRampNode_0" function="internal">
      <lanes>
         <lane id=":4038596#3-AddedOnRampNode_0_0" depart="0" maxspeed="27.78" length="3.00" shape="4578.71,2970.50 4581.21,2972.16"/>
      </lanes>
   </edge>
   <edge id=":4038596#3-AddedOnRampNode_1" function="internal">
      <lanes>
         <lane id=":4038596#3-AddedOnRampNode_1_0" depart="0" maxspeed="27.78" length="3.00" shape="4576.93,2973.27 4579.43,2974.94"/>
      </lanes>
   </edge>
   <edge id=":4038596#3-AddedOnRampNode_2" function="internal">
      <lanes>
         <lane id=":4038596#3-AddedOnRampNode_2_0" depart="0" maxspeed="27.78" length="3.00" shape="4575.15,2976.05 4577.64,2977.71"/>
      </lanes>
   </edge>
   <edge id=":4038598#0-AddedOffRampNode_0" function="internal">
      <lanes>
         <lane id=":4038598#0-AddedOffRampNode_0_0" depart="0" maxspeed="27.78" length="4.50" shape="6858.19,3946.37 6861.88,3943.79"/>
      </lanes>
   </edge>
   <edge id=":4038598#0-AddedOffRampNode_1" function="internal">
      <lanes>
         <lane id=":4038598#0-AddedOffRampNode_1_0" depart="0" maxspeed="27.78" length="3.00" shape="6858.19,3946.37 6861.13,3947.01"/>
      </lanes>
   </edge>
   <edge id=":4038598#0-AddedOffRampNode_2" function="internal">
      <lanes>
         <lane id=":4038598#0-AddedOffRampNode_2_0" depart="0" maxspeed="27.78" length="3.00" shape="6857.44,3949.58 6860.37,3950.22"/>
      </lanes>
   </edge>
   <edge id=":4038598#0-AddedOffRampNode_3" function="internal">
      <lanes>
         <lane id=":4038598#0-AddedOffRampNode_3_0" depart="0" maxspeed="27.78" length="3.00" shape="6856.68,3952.79 6859.62,3953.43"/>
      </lanes>
   </edge>
   <edge id=":4038598#2-AddedOnRampNode_0" function="internal">
      <lanes>
         <lane id=":4038598#2-AddedOnRampNode_0_0" depart="0" maxspeed="27.78" length="3.00" shape="7667.09,4384.57 7669.29,4386.61"/>
      </lanes>
   </edge>
   <edge id=":4038598#2-AddedOnRampNode_1" function="internal">
      <lanes>
         <lane id=":4038598#2-AddedOnRampNode_1_0" depart="0" maxspeed="27.78" length="3.00" shape="7664.89,4387.03 7667.09,4389.07"/>
      </lanes>
   </edge>
   <edge id=":4038598#2-AddedOnRampNode_2" function="internal">
      <lanes>
         <lane id=":4038598#2-AddedOnRampNode_2_0" depart="0" maxspeed="27.78" length="3.00" shape="7662.69,4389.49 7664.89,4391.53"/>
      </lanes>
   </edge>
   <edge id=":4038598#3-AddedOnRampNode_0" function="internal">
      <lanes>
         <lane id=":4038598#3-AddedOnRampNode_0_0" depart="0" maxspeed="27.78" length="3.01" shape="8023.92,4809.37 8025.75,4811.77"/>
      </lanes>
   </edge>
   <edge id=":4038598#3-AddedOnRampNode_1" function="internal">
      <lanes>
         <lane id=":4038598#3-AddedOnRampNode_1_0" depart="0" maxspeed="27.78" length="3.00" shape="8021.34,4811.42 8023.15,4813.81"/>
      </lanes>
   </edge>
   <edge id=":4038598#3-AddedOnRampNode_2" function="internal">
      <lanes>
         <lane id=":4038598#3-AddedOnRampNode_2_0" depart="0" maxspeed="27.78" length="2.98" shape="8018.75,4813.47 8020.56,4815.84"/>
      </lanes>
   </edge>
   <edge id=":48948854#0-AddedOffRampNode_0" function="internal">
      <lanes>
         <lane id=":48948854#0-AddedOffRampNode_0_0" depart="0" maxspeed="27.78" length="4.47" shape="7831.75,4625.83 7827.28,4625.62"/>
      </lanes>
   </edge>
   <edge id=":48948854#0-AddedOffRampNode_1" function="internal">
      <lanes>
         <lane id=":48948854#0-AddedOffRampNode_1_0" depart="0" maxspeed="27.78" length="2.98" shape="7831.75,4625.83 7829.84,4623.54"/>
      </lanes>
   </edge>
   <edge id=":48948854#0-AddedOffRampNode_2" function="internal">
      <lanes>
         <lane id=":48948854#0-AddedOffRampNode_2_0" depart="0" maxspeed="27.78" length="3.00" shape="7834.33,4623.77 7832.41,4621.46"/>
      </lanes>
   </edge>
   <edge id=":48948854#0-AddedOffRampNode_3" function="internal">
      <lanes>
         <lane id=":48948854#0-AddedOffRampNode_3_0" depart="0" maxspeed="27.78" length="3.03" shape="7836.91,4621.71 7834.97,4619.38"/>
      </lanes>
   </edge>
   <edge id=":48948854#2-AddedOnRampNode_0" function="internal">
      <lanes>
         <lane id=":48948854#2-AddedOnRampNode_0_0" depart="0" maxspeed="27.78" length="3.00" shape="7421.33,4227.26 7418.98,4225.40"/>
      </lanes>
   </edge>
   <edge id=":48948854#2-AddedOnRampNode_1" function="internal">
      <lanes>
         <lane id=":48948854#2-AddedOnRampNode_1_0" depart="0" maxspeed="27.78" length="3.00" shape="7423.34,4224.65 7420.99,4222.78"/>
      </lanes>
   </edge>
   <edge id=":48948854#2-AddedOnRampNode_2" function="internal">
      <lanes>
         <lane id=":48948854#2-AddedOnRampNode_2_0" depart="0" maxspeed="27.78" length="3.00" shape="7425.35,4222.03 7423.00,4220.16"/>
      </lanes>
   </edge>
   <edge id=":48948854#3-AddedOnRampNode_0" function="internal">
      <lanes>
         <lane id=":48948854#3-AddedOnRampNode_0_0" depart="0" maxspeed="27.78" length="3.00" shape="6851.49,3976.84 6848.57,3976.12"/>
      </lanes>
   </edge>
   <edge id=":48948854#3-AddedOnRampNode_1" function="internal">
      <lanes>
         <lane id=":48948854#3-AddedOnRampNode_1_0" depart="0" maxspeed="27.78" length="3.00" shape="6852.22,3973.62 6849.31,3972.90"/>
      </lanes>
   </edge>
   <edge id=":48948854#3-AddedOnRampNode_2" function="internal">
      <lanes>
         <lane id=":48948854#3-AddedOnRampNode_2_0" depart="0" maxspeed="27.78" length="3.00" shape="6852.96,3970.41 6850.05,3969.69"/>
      </lanes>
   </edge>
   <edge id=":621091435_0" function="internal">
      <lanes>
         <lane id=":621091435_0_0" depart="0" maxspeed="27.78" length="0.22" shape="8475.51,5431.59 8475.37,5431.41"/>
      </lanes>
   </edge>
   <edge id=":621091435_1" function="internal">
      <lanes>
         <lane id=":621091435_1_0" depart="0" maxspeed="27.78" length="0.13" shape="8478.07,5429.51 8477.99,5429.40"/>
      </lanes>
   </edge>
   <edge id=":621091435_2" function="internal">
      <lanes>
         <lane id=":621091435_2_0" depart="0" maxspeed="27.78" length="0.10" shape="8480.63,5427.43 8480.60,5427.39"/>
      </lanes>
   </edge>
   <edge id=":621091451_0" function="internal">
      <lanes>
         <lane id=":621091451_0_0" depart="0" maxspeed="27.78" length="0.10" shape="8447.55,5347.14 8447.55,5347.14"/>
      </lanes>
   </edge>
   <edge id=":621091451_1" function="internal">
      <lanes>
         <lane id=":621091451_1_0" depart="0" maxspeed="27.78" length="0.10" shape="8444.99,5349.23 8444.99,5349.23"/>
      </lanes>
   </edge>
   <edge id=":621091451_2" function="internal">
      <lanes>
         <lane id=":621091451_2_0" depart="0" maxspeed="27.78" length="0.10" shape="8442.40,5351.27 8442.43,5351.31"/>
      </lanes>
   </edge>
   <edge id=":621091454_0" function="internal">
      <lanes>
         <lane id=":621091454_0_0" depart="0" maxspeed="27.78" length="0.10" shape="8512.68,5426.97 8512.69,5426.98"/>
      </lanes>
   </edge>
   <edge id=":621091454_1" function="internal">
      <lanes>
         <lane id=":621091454_1_0" depart="0" maxspeed="27.78" length="0.10" shape="8510.07,5429.00 8510.11,5429.05"/>
      </lanes>
   </edge>
   <edge id=":621091454_2" function="internal">
      <lanes>
         <lane id=":621091454_2_0" depart="0" maxspeed="27.78" length="0.11" shape="8507.47,5431.03 8507.54,5431.11"/>
      </lanes>
   </edge>
   <edge id=":621091476_0" function="internal">
      <lanes>
         <lane id=":621091476_0_0" depart="0" maxspeed="27.78" length="0.10" shape="8421.79,5367.00 8421.79,5367.00"/>
      </lanes>
   </edge>
   <edge id=":621091476_1" function="internal">
      <lanes>
         <lane id=":621091476_1_0" depart="0" maxspeed="27.78" length="0.10" shape="8424.35,5364.92 8424.32,5364.89"/>
      </lanes>
   </edge>
   <edge id=":621091476_2" function="internal">
      <lanes>
         <lane id=":621091476_2_0" depart="0" maxspeed="27.78" length="0.13" shape="8426.94,5362.88 8426.86,5362.78"/>
      </lanes>
   </edge>

   <edge id="24613154" from="267557861" to="267557807" priority="12" type="highway.motorway_link" function="normal">
      <lanes>
         <lane id="24613154_0" depart="1" maxspeed="22.22" length="357.23" shape="7473.58,4290.86 7434.19,4328.76 7426.08,4363.89 7427.85,4387.41 7439.38,4406.23 7461.99,4425.89 7488.26,4432.47 7512.60,4427.96 7538.44,4414.49 7552.60,4393.26 7554.42,4362.18 7547.74,4343.44 7529.71,4315.36"/>
      </lanes>
   </edge>
   <edge id="24635567" from="361255253" to="267795378" priority="12" type="highway.motorway_link" function="normal">
      <lanes>
         <lane id="24635567_0" depart="1" maxspeed="22.22" length="359.86" shape="4068.54,2706.61 4059.04,2721.97 4044.76,2758.85 4039.60,2782.29 4042.80,2802.38 4050.89,2820.46 4070.82,2834.54 4100.50,2845.30 4128.20,2849.81 4154.57,2848.08 4184.55,2837.42 4199.40,2815.49 4199.62,2798.91 4195.09,2774.66 4175.71,2754.33"/>
      </lanes>
   </edge>
   <edge id="24846349" from="21380162" to="21380145" priority="13" type="highway.motorway" function="normal">
      <lanes>
         <lane id="24846349_0" depart="1" maxspeed="27.78" length="1922.26" shape="4872.53,3159.23 5366.39,3477.86 5574.46,3607.36 5687.41,3660.59 5837.44,3718.41 5957.94,3751.87 6400.83,3848.62 6621.15,3890.65"/>
         <lane id="24846349_1" depart="0" maxspeed="27.78" length="1922.26" shape="4870.75,3162.00 5364.60,3480.63 5572.72,3610.16 5686.00,3663.58 5836.25,3721.49 5957.06,3755.05 6400.12,3851.85 6620.39,3893.86"/>
         <lane id="24846349_2" depart="0" maxspeed="27.78" length="1922.26" shape="4868.96,3164.78 5362.82,3483.40 5570.97,3612.97 5684.59,3666.56 5835.07,3724.57 5956.17,3758.23 6399.42,3855.07 6619.64,3897.08"/>
      </lanes>
   </edge>
   <edge id="24846356" from="21380160" to="21380162" priority="13" type="highway.motorway" function="normal">
      <lanes>
         <lane id="24846356_0" depart="1" maxspeed="27.78" length="89.03" shape="4797.54,3111.21 4872.53,3159.22"/>
         <lane id="24846356_1" depart="0" maxspeed="27.78" length="89.03" shape="4795.76,3113.99 4870.74,3162.00"/>