<?xml version="1.0"?>

<!-- generated on 03/16/11 10:45:54 by SUMO duarouter Version 0.12.2
<?xml version="1.0" encoding="iso-8859-1"?>

<configuration xmlns:xsi="http://www.w3.org/2001/XMLSchema-instance" xsi:noNamespaceSchemaLocation="http://sumo.sf.net/xsd/duarouterConfiguration.xsd">

    <input>
        <net-file value="london.net.xml"/>
        <trip-defs value="trips.trips.xml"/>
    </input>

    <output>
        <output-file value="london.rou.xml"/>
    </output>

</configuration>
-->

<routes>
    <vehicle id="t0" depart="0.00">
        <route edges="26764298 -26764298 25840176#9 25840176#10 25840176#11 25840176#12 25840176#13 25840176#14 25840176#15 25840176#16 -24006308#9 -24006308#8 -24006308#7 -24006308#6 -24006308#5 -24006308#4 -24006308#3 27672902#2 27672902#3 27785509#4"/>
    </vehicle>
    <vehicle id="t1" depart="5.00">
        <route edges="-27672315#1 27672317#0 27672317#1 -25840176#15 -25840176#14 -25840176#13 -25840176#12 -25840176#11 -25840176#10 -25840176#9 -25840176#8 -25840176#7 -25840176#6 26445198#0 -8070572#10"/>
    </vehicle>
    <vehicle id="t2" depart="10.00">
        <route edges="-27672720#2 -31294045#2 -31294045#1 -31294045#0 -24494011#2 -24494011#1 -24494011#0 26595224#1 -26595224#1"/>
    </vehicle>
    <vehicle id="t3" depart="15.00">
        <route edges="31259155 31294045#6 -26764285#7 -26764285#6 -26764285#5 -26764285#4 -26764285#3 -26764285#2 -26764285#1 -26764285#0 -25840176#7 -25840176#6 -25840176#5 -26445197 -26764293#4"/>
    </vehicle>
    <vehicle id="t4" depart="20.00">
        <route edges="-31294043#3 23365098#3 23365098#4 -23365098#4"/>
    </vehicle>
    <vehicle id="t5" depart="25.00">
        <route edges="23365098#1 -23365098#1 -23365098#0 -31293550#1 -31293550#0 27771071#1 27771071#2 25840173 25840176#0 25840176#1 -25840176#1"/>
    </vehicle>
    <vehicle id="t6" depart="30.00">
        <route edges="-27672322#0 27672322#0 27672322#1 27672322#2 40070615#12 -26764286#7 -26764286#6 31294050#6 31294050#7 31294050#8 -31294050#8"/>
    </vehicle>
    <vehicle id="t7" depart="35.00">
        <route edges="25840176#9 -25840176#9 -25840176#8 25840176#8"/>
    </vehicle>
    <vehicle id="t8" depart="40.00">
        <route edges="26764292#1 -25840176#6 -25840176#5 -25840176#4 -25840176#3 -27771927#9 31294034#1 31294034#2 27696193#1 27696193#2 27696193#3 27696193#4 27696193#5 27696193#6 102843056 -40070615#22 -40070615#21 40070615#21"/>
    </vehicle>
    <vehicle id="t9" depart="45.00">
        <route edges="-26774961#12 -26774961#11 27672322#1 27672322#2 40070615#12 40070615#13 40070615#14 40070615#15 40070615#16 40070615#17 40070615#18 40070615#19 40070615#20 40070615#21 40070615#22 -102843056 -27696193#6 -27696193#5 -27696193#4 -27696193#3 -27696193#2 24494010#4 24494010#5 -27695732#0"/>
    </vehicle>
    <vehicle id="t10" depart="50.00">
        <route edges="-26596251#4 -31294049#2 -31294049#1 -31294049#0 -26445198#7 -26445198#6 -26445198#5 -26445198#4 -26445198#3 -26445198#2 -26445198#1 -26445198#0 -25840176#5 -26445197 26764293#5 26445203#1"/>
    </vehicle>
    <vehicle id="t11" depart="55.00">
        <route edges="-24006308#8 -24006308#7 -24006308#6 -24006308#5 -24006308#4 -24006308#3 -24006308#2 24006308#2"/>
    </vehicle>
    <vehicle id="t12" depart="60.00">
        <route edges="26764285#7 31294045#7 31294045#8 31294045#9 31294045#10 31294043#0 31294043#1 60857774#2 60857774#3 27695732#0"/>
    </vehicle>
    <vehicle id="t13" depart="65.00">
        <route edges="31294051#0 -31294051#0 -31294050#8 -26764285#8 -26764285#7 -26764285#6 -26764285#5 -26764285#4 24494005#0 26764286#3"/>
    </vehicle>
    <vehicle id="t14" depart="70.00">
        <route edges="25840176#17 -25840176#17 -25840176#16 -25840176#15 -25840176#14 -25840176#13 -25840176#12 -25840176#11 26764297#0 26764293#1"/>
    </vehicle>
    <vehicle id="t15" depart="75.00">
        <route edges="-31294035#2 -27695733#0 23365098#0 23365098#1 23365098#2 23365098#3 23365098#4 23365098#5 -34316281#0 -51189618 -23500854 -31293535#3 27696193#6 102843056 -40070615#22 -40070615#21 -40070615#20 -40070615#19 -40070615#18 -40070615#17 -40070615#16 -40070615#15 -40070615#14 -40070615#13 -40070615#12 -40070615#11 -40070615#10 -40070615#9 -40070615#8 -27672319#1 27672319#1"/>
    </vehicle>
    <vehicle id="t16" depart="80.00">
        <route edges="25840176#6 -25840176#6 -25840176#5 -25840176#4 -25840176#3 -27771927#9 31294034#1 31294034#2 27696193#1 27696193#2 27696193#3 27696193#4 27696193#5 31293535#3 23500854 51189618 -51189618"/>
    </vehicle>
    <vehicle id="t17" depart="85.00">
        <route edges="-27672317#10 40070615#7 40070615#8 40070615#9 40070615#10 40070615#11 40070615#12 40070615#13 40070615#14 40070615#15 40070615#16 40070615#17 40070615#18 40070615#19 40070615#20 40070615#21 40070615#22 -102843056 -27696193#6 -27696193#5 -27696193#4 -27696193#3 -27696193#2 -27696193#1 31294035#0 60857774#6"/>
    </vehicle>
    <vehicle id="t18" depart="90.00">
        <route edges="31293535#2 27696193#6 102843056 -40070615#22 -40070615#21 -40070615#20 -40070615#19 -40070615#18 -40070615#17 -40070615#16 -27672326#1 -27672326#0 27672326#0"/>
    </vehicle>
    <vehicle id="t19" depart="95.00">
        <route edges="27771071#0 27771071#1 27771071#2 25840173 25840176#0 25840176#1 25840176#2 25840176#3 25840176#4 25840176#5 25840176#6 25840176#7 25840176#8 25840176#9 25840176#10 25840176#11 25840176#12 25840176#13 -27672720#6 -27672720#5 8070572#7"/>
    </vehicle>
    <vehicle id="t20" depart="100.00">
        <route edges="-27672334 26764285#2 26764285#3 26764285#4 26764285#5 26764285#6 26764285#7 26764285#8 31294050#8 31294051#0 31294051#1 31294051#2 31294051#3 27696193#5 27696193#6 26596251#0 63013181#3"/>
    </vehicle>
    <vehicle id="t21" depart="105.00">
        <route edges="-27672720#6 -27672720#5 -27672720#4 -27672720#3 -24494005#1 26764286#3 26764286#4 31294045#4 -31259482"/>
    </vehicle>
    <vehicle id="t22" depart="110.00">
        <route edges="27696193#5 -27696193#5 -27696193#4 -27696193#3 -27696193#2 -27696193#1 -31294034#2 62094493#6 25840176#1 25840176#2 25840176#3 25840176#4 25840176#5 25840176#6 25840176#7 25840176#8"/>
    </vehicle>
    <vehicle id="t23" depart="115.00">
        <route edges="25840176#8 25840176#9 25840176#10 25840176#11 25840176#12 25840176#13 25840176#14 25840176#15 25840176#16 -24006308#9 -24006308#8 -24006308#7 -24006308#6 -24006308#5 -24006308#4 -24006308#3 -24006308#2 40070615#6 40070615#7 40070615#8 40070615#9 40070615#10 40070615#11 40070615#12 40070615#13 -27672323#1 -27672323#0 -26764287#0"/>
    </vehicle>
    <vehicle id="t24" depart="120.00">
        <route edges="23913644#1 -23913644#1 -23913644#0 -25840176#2 -25840176#1 -25840176#0 -25840173 -27771071#2 -27771071#1"/>
    </vehicle>
    <vehicle id="t25" depart="125.00">
        <route edges="27672333 -27672333 -26445198#2 26764284 26445203#4"/>
    </vehicle>
    <vehicle id="t26" depart="130.00">
        <route edges="-31294043#3 -31294043#2 -31294043#1 27696193#4 -31294051#3 -31294051#2 -31294051#1 -31294051#0 -31294050#8 -31294050#7 -31294050#6 -31294050#5 -31294050#4 -31294050#3 -31294050#2 -31294050#1 -31294050#0 24006308#5 24006308#6 24006308#7 24494005#5 24494005#6 24494005#7 27785511#2"/>
    </vehicle>
    <vehicle id="t27" depart="135.00">
        <route edges="-27672317#7 27672317#7 31294050#1 31294050#2 31294050#3 31294050#4 31294050#5 31294050#6 31294050#7 31294050#8 31294051#0 26445203#7 26445203#8 26445203#9"/>
    </vehicle>
    <vehicle id="t28" depart="140.00">
        <route edges="26764287#5 -26764287#5 -26764287#4 26764289#0 26764289#1 -40070615#17 -40070615#16 -40070615#15 -40070615#14 -40070615#13 -40070615#12 -40070615#11 -40070615#10 -40070615#9 -40070615#8 -40070615#7 -40070615#6 -40070615#5 -40070615#4 -40070615#3 -40070615#2 -40070615#1 -40070615#0 -26595224#4 -26595224#3 -26595224#2"/>
    </vehicle>
    <vehicle id="t29" depart="145.00">
        <route edges="-27695730#0 27695730#0 27695730#1 -23365098#3 -31294043#2 -31294043#1 -27696193#3 -27696193#2 -24494010#3 -24494010#2 -27771927#7"/>
    </vehicle>
    <vehicle id="t30" depart="150.00">
        <route edges="27785509#10 -25840176#17 -24006308#9 -24006308#8 -24006308#7 -24006308#6 -24006308#5 -24006308#4 -24006308#3 -24006308#2 -24006308#1 -24006308#0 -26774961#17 -26774961#16 26774961#16"/>
    </vehicle>
    <vehicle id="t31" depart="155.00">
        <route edges="-27785604 -24494005#6 -24494005#5 -24006308#7 -24006308#6 -24006308#5 -24006308#4 -24006308#3 -24006308#2 -40070615#5 -40070615#4 -27785509#1"/>
    </vehicle>
    <vehicle id="t32" depart="160.00">
        <route edges="60857774#4 -24494010#4 -27696193#1 -31294034#2 -31294034#1 -31294034#0 -8070572#11 -26445198#0"/>
    </vehicle>
    <vehicle id="t33" depart="165.00">
        <route edges="-27672326#1 27672326#1 40070615#16 -31294049#3 -31294049#2 -31294049#1 -31294049#0 -26445198#7 -26445198#6 -26445198#5 -26445198#4 -26445198#3 -26445198#2 -26445198#1 -26445198#0 -25840176#5"/>
    </vehicle>
    <vehicle id="t34" depart="170.00">
        <route edges="-23500853#1 27672327#2 31294050#5 -26764286#5 -26764286#4 -26764286#3 -26764286#2 -26764286#1 -26764286#0 -25840176#11 26764297#0 26764293#1 26764299 -26764299"/>
    </vehicle>
    <vehicle id="t35" depart="175.00">
        <route edges="-27786149#0 27786149#0 27786149#1 -41231929#0 -24006308#9 -24006308#8 24494005#5 24494005#6 -24494005#6"/>
    </vehicle>
    <vehicle id="t36" depart="180.00">
        <route edges="-26764293#5 26445197 -25840176#4 -25840176#3 -27771927#9 31294034#1 31294034#2 27696193#1 27696193#2 27696193#3 27696193#4 27696193#5 27696193#6 102843056 102843057#0 102843057#1 -27695534#0 -24498395 24498394#0"/>
    </vehicle>
    <vehicle id="t37" depart="185.00">
        <route edges="40070615#17 -40070615#17 -40070615#16 -40070615#15 -40070615#14 -40070615#13 -40070615#12 -40070615#11 -40070615#10 -40070615#9 -40070615#8 -40070615#7 -40070615#6 24006308#2 24006308#3 24006308#4 24006308#5 24006308#6 24006308#7 24006308#8 24006308#9 -24006308#9"/>
    </vehicle>
    <vehicle id="t38" depart="190.00">
        <route edges="26764285#4 -26764285#4 -26764285#3 -26764285#2 -26764285#1 -26764285#0 25840176#8 26764298 -26764293#2 26764293#2"/>
    </vehicle>
    <vehicle id="t39" depart="195.00">
        <route edges="27672335#8 27672335#9 27672319#1 40070615#8 40070615#9 40070615#10 40070615#11 40070615#12 40070615#13 40070615#14 40070615#15 40070615#16 40070615#17 40070615#18 40070615#19 40070615#20 40070615#21 40070615#22 -102843056 -27696193#6 31293535#3 23500854 51189618 34316281#0 -23365098#5 -23365098#4"/>
    </vehicle>
    <vehicle id="t40" depart="200.00">
        <route edges="25840176#19 -25840176#19 -25840176#18 -25840176#17 -24006308#9 -24006308#8 -24006308#7 -24006308#6 -24006308#5 -24006308#4 -24006308#3 -24006308#2 40070615#6 -27672317#9"/>
    </vehicle>
    <vehicle id="t41" depart="205.00">
        <route edges="27786149#0 27786149#1 -41231929#0 -25840176#16 -25840176#15 -25840176#14 -25840176#13 -25840176#12 -25840176#11 -25840176#10 -25840176#9 -25840176#8 -25840176#7 -25840176#6 -25840176#5 25840176#5"/>
    </vehicle>
    <vehicle id="t42" depart="210.00">
        <route edges="-27672317#9 27672902#1 24006308#3 24006308#4 24006308#5 24006308#6 24006308#7 24494005#5 24494005#6 24494005#7 24494005#8 26595224#0"/>
    </vehicle>
    <vehicle id="t43" depart="215.00">
        <route edges="27672335#5 -24006308#0 24006308#0"/>
    </vehicle>
    <vehicle id="t44" depart="220.00">
        <route edges="-27672323#0 27672323#0 27672323#1 40070615#14 40070615#15"/>
    </vehicle>
    <vehicle id="t45" depart="225.00">
        <route edges="-60857774#5 -24494010#4 -27696193#1 -31294034#2 62094493#6 25840176#1 25840176#2 25840176#3 25840176#4 25840176#5"/>
    </vehicle>
    <vehicle id="t46" depart="230.00">
        <route edges="25840176#12 25840176#13 25840176#14 25840176#15 25840176#16 -24006308#9 -24006308#8 -24006308#7 -24006308#6 -24006308#5 -24006308#4 -24006308#3 -24006308#2 -24006308#1 -27672335#5 27785510#1"/>
    </vehicle>
    <vehicle id="t47" depart="235.00">
        <route edges="26445203#7 31259124 -31294049#0 -31294050#8 -31294050#7 -31294050#6 -31294050#5 -31294050#4 -31294050#3 -31294050#2 -31294050#1 -31294050#0 24006308#5 24006308#6 27785593#0 27785509#8"/>
    </vehicle>
    <vehicle id="t48" depart="240.00">
        <route edges="27695722#1 -27695534#1 -102843057#1 -102843057#0 -40070615#22 -40070615#21 -40070615#20 -40070615#19 -40070615#18 -40070615#17 -40070615#16 -40070615#15 -40070615#14 -40070615#13 -40070615#12 -40070615#11 -40070615#10 -40070615#9 -40070615#8 -40070615#7 -40070615#6 -24006308#1 -24006308#0 -24331564 24331564"/>
    </vehicle>
    <vehicle id="t49" depart="245.00">
        <route edges="-24494011#2 24494011#2 31294045#0 31294045#1 31294045#2 31294045#3 31294045#4 31294045#5 31294045#6 26764285#8"/>
    </vehicle>
    <vehicle id="t50" depart="250.00">
        <route edges="-27785593#1 27785509#8 -24494005#5 24006308#8 24006308#9 -25840176#16 -25840176#15 -25840176#14 -25840176#13 -25840176#12 -25840176#11 -25840176#10 -25840176#9 -25840176#8 -25840176#7 -25840176#6 -25840176#5 -25840176#4 -25840176#3 -25840176#2 -25840176#1 25840176#1"/>
    </vehicle>
    <vehicle id="t51" depart="255.00">
        <route edges="102843057#1 -102843057#1 -102843057#0 -40070615#22 -40070615#21 -40070615#20 -40070615#19 -40070615#18 -40070615#17 -40070615#16 -40070615#15 -40070615#14 -40070615#13 -40070615#12 -40070615#11 -40070615#10 -40070615#9 -40070615#8 -27672319#1 -27672335#9 -27672335#8 -27672318#1 26774961#16"/>
    </vehicle>
    <vehicle id="t52" depart="260.00">
        <route edges="-27672316#1 -27672316#0 -25840176#14 -25840176#13 -25840176#12 -25840176#11 -25840176#10 -25840176#9 -25840176#8 -25840176#7 -25840176#6 -25840176#5 -25840176#4 -25840176#3 -25840176#2 -25840176#1 -25840176#0 -25840173 -27771071#2 -27771071#1 31293550#0 31293550#1 -27695732#1 -24494010#5 24494010#5"/>
    </vehicle>
    <vehicle id="t53" depart="265.00">
        <route edges="40070615#4 40070615#5 -24006308#1 -24006308#0 26774961#18 26774961#19"/>
    </vehicle>
    <vehicle id="t54" depart="270.00">
        <route edges="40070615#9 -40070615#9 -40070615#8 -40070615#7 -40070615#6 -40070615#5 -40070615#4 -40070615#3 -40070615#2 -40070615#1 -40070615#0 -26595224#4"/>
    </vehicle>
    <vehicle id="t55" depart="275.00">
        <route edges="-27695721#1 27695721#1 27696193#3 27696193#4 27696193#5 27696193#6 102843056 -40070615#22 -40070615#21 -40070615#20 -40070615#19 -40070615#18 -40070615#17 -40070615#16 -40070615#15 -40070615#14 -40070615#13 -40070615#12 -27672322#2 -27672324#1"/>
    </vehicle>
    <vehicle id="t56" depart="280.00">
        <route edges="-41231929#0 -24006308#9 -24006308#8 -24006308#7 -24006308#6 -24006308#5 -24006308#4 -24006308#3 -24006308#2 -24006308#1 -24006308#0 -26774961#17 -26774961#16 27672318#1"/>
    </vehicle>
    <vehicle id="t57" depart="285.00">
        <route edges="27672317#2 -8070572#4 -24006308#8 -24006308#7 -24006308#6 -24006308#5 -24006308#4 -24006308#3 -24006308#2 40070615#6 40070615#7 40070615#8 40070615#9 40070615#10 40070615#11 40070615#12 40070615#13 40070615#14 40070615#15 40070615#16 40070615#17 40070615#18 40070615#19 40070615#20 40070615#21 40070615#22 25840020 -23365098#7"/>
    </vehicle>
    <vehicle id="t58" depart="290.00">
        <route edges="-27672335#6 24006308#1 40070615#6 40070615#7 40070615#8 40070615#9 40070615#10 40070615#11 40070615#12 40070615#13 40070615#14 40070615#15 40070615#16 40070615#17 40070615#18 40070615#19 40070615#20 40070615#21 40070615#22 -102843056 -27696193#6 31293535#3 23500854 51189618 34316281#0 -23365098#5 -23365098#4 -23365098#3 31294043#3 31294044 27695726#3"/>
    </vehicle>
    <vehicle id="t59" depart="295.00">
        <route edges="-25840176#12 -25840176#11 -25840176#10 -25840176#9 -25840176#8 -25840176#7 -25840176#6 -25840176#5 -25840176#4 -25840176#3 -27771927#9 31294034#1 31294034#2 27696193#1 27696193#2 27696193#3 31294043#1"/>
    </vehicle>
    <vehicle id="t60" depart="300.00">
        <route edges="-26764294#0 -26764296#1 -26764296#0 -25840176#12 -25840176#11 -25840176#10 -25840176#9 -25840176#8 -25840176#7 -25840176#6 -25840176#5 -25840176#4 -25840176#3 -27771927#9 -27771927#8 -27771927#7 27695721#0"/>
    </vehicle>
    <vehicle id="t61" depart="305.00">
        <route edges="-27695726#1 -31294035#4 -31294035#3 31293550#1 23365098#0 23365098#1 23365098#2 23365098#3 23365098#4 23365098#5 23365098#6 23365098#7 23365098#8 23365098#9 23365098#10 -23365098#10"/>
    </vehicle>
    <vehicle id="t62" depart="310.00">
        <route edges="-26764285#9 -31294050#7 -31294050#6 -31294050#5 -31294050#4 -31294050#3 -31294050#2 -31294050#1 -31294050#0 -26596261#2 -26596261#1 -26596261#0 26595224#3"/>
    </vehicle>
    <vehicle id="t63" depart="315.00">
        <route edges="26764284 26445203#4 26445203#5 26445203#6 -31294051#0 31294049#0 31294049#1 31294049#2 31294049#3 -40070615#16 40070615#16"/>
    </vehicle>
    <vehicle id="t64" depart="320.00">
        <route edges="-40070615#1 40070615#1 40070615#2 40070615#3 40070615#4 40070615#5 24006308#2 24006308#3 24006308#4 24006308#5 24006308#6 24006308#7 -24494005#4 -24494005#3 -24494005#2 -24494005#1 -26764286#2 -27672334"/>
    </vehicle>
    <vehicle id="t65" depart="325.00">
        <route edges="31293536#1 31293536#2 31293535#0 31293535#1 31293535#2 31293535#3 23500854 51189618 34316281#0 -23365098#5 -23365098#4 -23365098#3 -23365098#2 -23365098#1 -23365098#0 -31293550#1 -31293550#0 27771071#1 -27771071#1"/>
    </vehicle>
    <vehicle id="t66" depart="330.00">
        <route edges="41231929#0 -41231929#0 -24006308#9 -24006308#8 -24006308#7 -24006308#6 -24006308#5 -24006308#4 -24006308#3 -24006308#2 40070615#6 40070615#7 40070615#8 40070615#9 40070615#10 40070615#11 40070615#12 40070615#13 40070615#14 40070615#15 40070615#16 40070615#17 40070615#18 40070615#19 40070615#20 40070615#21 40070615#22 102843057#0 102843057#1 -27695534#0 27695534#0"/>
    </vehicle>
    <vehicle id="t67" depart="335.00">
        <route edges="-26774961#11 27672322#1 27672322#2 -40070615#11 -40070615#10 -40070615#9 -40070615#8 -40070615#7 -40070615#6 -40070615#5 -40070615#4 -40070615#3 27785525"/>
    </vehicle>
    <vehicle id="t68" depart="340.00">
        <route edges="-27785509#8 27785509#8 -24494005#5 24006308#8 24006308#9 -25840176#16 -25840176#15 -25840176#14 -25840176#13 -25840176#12 -25840176#11 -25840176#10 -25840176#9 -25840176#8 -25840176#7 -25840176#6 -25840176#5 -25840176#4 -25840176#3 -25840176#2 -25840176#1 -25840176#0"/>
    </vehicle>
    <vehicle id="t69" depart="345.00">
        <route edges="-27786149#1 27786149#1 -41231929#0 -24006308#9 -24006308#8 -24006308#7 -24006308#6 -24006308#5 31294050#0 31294050#1 31294050#2 31294050#3 31294050#4 -27672327#2 -27672327#1"/>
    </vehicle>
    <vehicle id="t70" depart="350.00">
        <route edges="27672315#2 -27672315#2 -27672316#1 -27672316#0 -25840176#14 -25840176#13 -25840176#12 -25840176#11 -25840176#10 -25840176#9 -25840176#8 -25840176#7 -25840176#6 -25840176#5 -25840176#4 -25840176#3 -25840176#2 -25840176#1 62094493#7 -31274215 31274215"/>
    </vehicle>
    <vehicle id="t71" depart="355.00">
        <route edges="27695546 26764287#5 27695531#0 27695531#1 63013181#0 63013181#1 40070615#22 -102843056 -27696193#6 -27696193#5 -27696193#4 -27696193#3 -27696193#2 -24494010#3 -24494010#2 -24494010#1 26445203#5"/>
    </vehicle>
    <vehicle id="t72" depart="360.00">
        <route edges="-27672335#1 27672335#1 27672335#2 27672335#3 27672335#4 27672335#5 24006308#1 24006308#2 24006308#3 24006308#4 24006308#5 24006308#6 24006308#7 24006308#8 24006308#9 -25840176#16 -25840176#15 -25840176#14 -25840176#13 -25840176#12 -25840176#11 26764297#0 26764297#1 -26764294#0"/>
    </vehicle>
    <vehicle id="t73" depart="365.00">
        <route edges="-25840176#15 25840176#15 25840176#16 -24006308#9 -24006308#8 -24006308#7 -24006308#6 -24006308#5 -24006308#4 -24006308#3 -24006308#2 40070615#6 40070615#7 40070615#8 40070615#9 40070615#10 40070615#11 40070615#12 40070615#13 40070615#14 40070615#15 40070615#16 40070615#17 40070615#18 40070615#19 40070615#20 40070615#21 40070615#22 102843057#0 102843057#1 -27695534#0"/>
    </vehicle>
    <vehicle id="t74" depart="370.00">
        <route edges="31294043#1 -31294043#1 -27696193#3 -27696193#2 -27696193#1 -27696193#0 27696193#0"/>
    </vehicle>
    <vehicle id="t75" depart="375.00">
        <route edges="40070615#17 40070615#18 40070615#19 40070615#20 40070615#21 -40070615#21"/>
    </vehicle>
    <vehicle id="t76" depart="380.00">
        <route edges="27785511#2 -27785511#2 -24494005#7 -24494005#6 -24494005#5 -24006308#7 -24006308#6 -24006308#5 -24006308#4 -24006308#3 -24006308#2 40070615#6 40070615#7 40070615#8 40070615#9 40070615#10 40070615#11 40070615#12 40070615#13 40070615#14 40070615#15 40070615#16 40070615#17 40070615#18 40070615#19 -31259645 31259645"/>
    </vehicle>
    <vehicle id="t77" depart="385.00">
        <route edges="40070615#17 40070615#18 40070615#19 40070615#20 40070615#21 40070615#22 -102843056 -27696193#6 -31293535#2"/>
    </vehicle>
    <vehicle id="t78" depart="390.00">
        <route edges="31293535#3 -31293535#3 -27696193#5 -31294051#3 -31294051#2 -31294051#1 -31294051#0 -31294050#8 -31294050#7 -31294050#6 -31294050#5 -31294050#4 -31294050#3 -31294050#2 -31294050#1 -31294050#0 24006308#5 24006308#6 24006308#7 -24494005#4 -27672317#4 -27672317#3"/>
    </vehicle>
    <vehicle id="t79" depart="395.00">
        <route edges="-23365098#1 -23365098#0 -31293550#1 -31293550#0 27771071#1 27771071#2 25840173 25840176#0 25840176#1 25840176#2 25840176#3 25840176#4 25840176#5 25840176#6 25840176#7 25840176#8 25840176#9 25840176#10 25840176#11 25840176#12 25840176#13 25840176#14 25840176#15 25840176#16 25840176#17 25840176#18 27785511#0 8070572#1"/>
    </vehicle>
    <vehicle id="t80" depart="400.00">
        <route edges="-27672324#0 27672320#1 -27672335#10 -27672335#9 -27672335#8 -27672335#7 -27672335#6 24006308#1 24006308#2 24006308#3 24006308#4 24006308#5 24006308#6 24006308#7 24006308#8 24006308#9 41231929#0 -27786149#1 -27786149#0 27786149#0"/>
    </vehicle>
    <vehicle id="t81" depart="405.00">
        <route edges="-26764286#6 31294050#6 31294050#7 31294050#8 31294051#0 31294051#1 31294051#2 31294051#3 27696193#5 27696193#6 102843056 25840020 23365098#8 -23365098#8"/>
    </vehicle>
    <vehicle id="t82" depart="410.00">
        <route edges="27786150#0 27786151 -41231929#2 -41231929#1 -41231929#0 -25840176#16 -25840176#15 -25840176#14 -25840176#13 -25840176#12 -25840176#11 -25840176#10 -25840176#9 -25840176#8 -25840176#7 -25840176#6 -25840176#5 -25840176#4 -25840176#3 -27771927#9 -27771927#8 27771927#8"/>
    </vehicle>
    <vehicle id="t83" depart="415.00">
        <route edges="27785509#10 -25840176#17 -24006308#9 -24006308#8 -24006308#7 -24006308#6 -24006308#5 31294050#0 31294050#1 31294050#2 31294050#3 31294050#4 31294050#5 31294050#6 31294050#7 31294050#8 31294051#0 31294051#1 31294051#2 31294051#3 27696193#5 31293535#3 23500854 51189618 34316281#0 34316281#1"/>
    </vehicle>
    <vehicle id="t84" depart="420.00">
        <route edges="26764285#8 31294050#8 31294051#0 31294051#1 31294051#2 31294051#3 -27696193#4 -31294043#0"/>
    </vehicle>
    <vehicle id="t85" depart="425.00">
        <route edges="-27695727#2 27695725#0 -34316281#1 -34316281#0 -51189618 -23500854 -31293535#3 -27696193#5 -31294051#3 -31294051#2 -31294051#1 -31294051#0"/>
    </vehicle>
    <vehicle id="t86" depart="430.00">
        <route edges="-25840176#4 25840176#4 25840176#5 25840176#6 25840176#7 25840176#8 25840176#9 25840176#10 25840176#11 25840176#12 25840176#13 25840176#14 25840176#15 25840176#16 -24006308#9 -24006308#8 24494005#5 27785509#9"/>
    </vehicle>
    <vehicle id="t87" depart="435.00">
        <route edges="-8070572#9 31259294 -25840176#9 -25840176#8 -25840176#7 -25840176#6 -25840176#5 -25840176#4 -25840176#3 -25840176#2 -25840176#1 -25840176#0 -25840173 -27771071#2 -27771071#1 31293550#0 31294035#3"/>
    </vehicle>
    <vehicle id="t88" depart="440.00">
        <route edges="24006308#6 -24006308#6 -24006308#5 -24006308#4 -24006308#3 -24006308#2 40070615#6 40070615#7 40070615#8 40070615#9 40070615#10 40070615#11 40070615#12 40070615#13 40070615#14 40070615#15 40070615#16 40070615#17 40070615#18 40070615#19 40070615#20 40070615#21 40070615#22 25840020 -23365098#7 -27695727#0"/>
    </vehicle>
    <vehicle id="t89" depart="445.00">
        <route edges="40070615#21 -40070615#21 -40070615#20 -40070615#19 -40070615#18 -40070615#17 -40070615#16 -40070615#15 -40070615#14 -40070615#13 -40070615#12 -40070615#11 -40070615#10 -40070615#9 -40070615#8 -40070615#7 -40070615#6 -40070615#5 -40070615#4 -40070615#3 -40070615#2 -40070615#1 -40070615#0 -26595224#4 26595224#4"/>
    </vehicle>
    <vehicle id="t90" depart="450.00">
        <route edges="-27785509#0 27785509#0 27672335#4 27672335#5 24006308#1 24006308#2 24006308#3 24006308#4 24006308#5 24006308#6 24006308#7 24006308#8 24006308#9 25840176#17 25840176#18 25840176#19 -25840176#19"/>
    </vehicle>
    <vehicle id="t91" depart="455.00">
        <route edges="31294043#2 -23365098#2 -23365098#1 -23365098#0 -31293550#1 -31293550#0 27771071#1 27771071#2 25840173 25840176#0 25840176#1 25840176#2 25840176#3 25840176#4 25840176#5 25840176#6 25840176#7 25840176#8 25840176#9 25840176#10 25840176#11 25840176#12 25840176#13 25840176#14 25840176#15 25840176#16 41231929#0 41231929#1 41231929#2 41231929#3"/>
    </vehicle>
    <vehicle id="t92" depart="460.00">
        <route edges="-40070615#1 40070615#1 40070615#2 40070615#3 40070615#4 40070615#5 24006308#2 24006308#3 24006308#4 24006308#5 24006308#6 27785593#0"/>
    </vehicle>
    <vehicle id="t93" depart="465.00">
        <route edges="-40070615#19 -40070615#18 -40070615#17 -40070615#16 -40070615#15 -40070615#14 -40070615#13 -26764286#7 -26764286#6 -26764286#5 -26764286#4 -26764286#3 -26764286#2 -27672334"/>
    </vehicle>
    <vehicle id="t94" depart="470.00">
        <route edges="27672332 -26764285#5 -26764285#4 24494005#0 24494005#1 27672720#3 27672720#4 27672720#5"/>
    </vehicle>
    <vehicle id="t95" depart="475.00">
        <route edges="27785509#10 -25840176#17 -24006308#9 -24006308#8 -24006308#7 -24006308#6 -24006308#5 -24006308#4 -24006308#3 -24006308#2 40070615#6 40070615#7 40070615#8 40070615#9 40070615#10 40070615#11 40070615#12 40070615#13 40070615#14 40070615#15 40070615#16 -31294049#3 -26596251#3"/>
    </vehicle>
    <vehicle id="t96" depart="480.00">
        <route edges="40070615#16 40070615#17 40070615#18 40070615#19 40070615#20 40070615#21 63013181#2 63013181#3 62094490 62094493#0 62094493#1 -31294051#2"/>
    </vehicle>
    <vehicle id="t97" depart="485.00">
        <route edges="-24006308#3 24006308#3 24006308#4 24006308#5 24006308#6 24006308#7 24006308#8 24006308#9 -25840176#16 -25840176#15 -25840176#14 -25840176#13 -25840176#12 -25840176#11 -25840176#10 -25840176#9 -25840176#8 -25840176#7 -25840176#6 -25840176#5 -25840176#4 -25840176#3 23913644#0 23913644#1 23913644#2 23913644#3 -26764294#4 26445203#0"/>
    </vehicle>
    <vehicle id="t98" depart="490.00">
        <route edges="-23500853#1 27672327#2 31294050#5 31294050#6 31294050#7 31294050#8 31294051#0 31294051#1 31294051#2 31294051#3 -27696193#4 31294043#1 31294043#2 23365098#3"/>
    </vehicle>
    <vehicle id="t99" depart="495.00">
        <route edges="-40070615#6 24006308#2 24006308#3 24006308#4 31294050#0 31294050#1 31294050#2 31294050#3 31294050#4 31294050#5 31294050#6 31294050#7 31294050#8 31294051#0 31294051#1 31294051#2"/>
    </vehicle>
    <vehicle id="t100" depart="500.00">
        <route edges="-23365098#10 -23365098#9 -23365098#8 -25840020 -40070615#22 -40070615#21 -40070615#20 -40070615#19 -40070615#18 -40070615#17 -40070615#16 -40070615#15 -40070615#14 -40070615#13 -40070615#12 -40070615#11 -40070615#10 -40070615#9 -40070615#8 -40070615#7 -40070615#6 24006308#2 24006308#3 24006308#4 31294050#0 -31294050#0"/>
    </vehicle>
    <vehicle id="t101" depart="505.00">
        <route edges="27785511#7 -27785511#7 -27785511#6 -27785511#5 -27785511#4 -27785511#3 -27785511#2"/>
    </vehicle>
    <vehicle id="t102" depart="510.00">
        <route edges="-26764285#5 26764285#5 26764285#6 26764285#7 26764285#8 31294050#8 31294049#0 31294049#1 31294049#2 31294049#3 40070615#17"/>
    </vehicle>
    <vehicle id="t103" depart="515.00">
        <route edges="-31294035#1 -31294035#0 27696193#1 27696193#2 27696193#3 -31294043#0 -31294045#10 -27771927#5"/>
    </vehicle>
    <vehicle id="t104" depart="520.00">
        <route edges="-26596261#2 26596261#2 31294050#0 31294050#1 31294050#2 31294050#3 31294050#4 31294050#5 31294050#6 31294050#7 31294050#8 31294051#0 26445203#7 26445203#8 26445203#9"/>
    </vehicle>
    <vehicle id="t105" depart="525.00">
        <route edges="-27672902#3 -27672902#2 24006308#3 24006308#4 24006308#5 24006308#6 24006308#7 24006308#8 24006308#9 -25840176#16 -25840176#15 27672316#0 27672316#1"/>
    </vehicle>
    <vehicle id="t106" depart="530.00">
        <route edges="24006308#6 24006308#7 24006308#8 24006308#9 -25840176#16 -25840176#15 -25840176#14 -25840176#13 -25840176#12 -25840176#11 -25840176#10 -25840176#9 -25840176#8 -25840176#7 -25840176#6 -25840176#5 -25840176#4 -25840176#3 -25840176#2 -25840176#1 -25840176#0 -25840173 -27771071#2 -27771071#1"/>
    </vehicle>
    <vehicle id="t107" depart="535.00">
        <route edges="31293535#1 31293535#2 31293535#3 23500854 51189618 34316281#0 -23365098#5 -23365098#4 -23365098#3 -23365098#2 -23365098#1 24494010#7 24494010#8 -24494010#8"/>
    </vehicle>
    <vehicle id="t108" depart="540.00">
        <route edges="27672324#1 27672322#2 -40070615#11 40070615#11"/>
    </vehicle>
    <vehicle id="t109" depart="545.00">