<?xml version="1.0"?>

<!-- generated on 04/15/11 14:48:24 by SUMO netconvert Version 0.12.3
<?xml version="1.0" encoding="iso-8859-1"?>

<configuration xmlns:xsi="http://www.w3.org/2001/XMLSchema-instance" xsi:noNamespaceSchemaLocation="http://sumo.sf.net/xsd/netconvertConfiguration.xsd">

    <input>
        <osm-files value="london.osm"/>
    </input>

    <output>
        <output-file value="london.net.xml"/>
    </output>

    <projection>
        <proj.utm value="true"/>
    </projection>

    <tls_building>
        <try-join-tls value="true"/>
    </tls_building>

</configuration>
-->

<net>

   <location netOffset="-478926.02,-4758379.81" convBoundary="0.00,0.00,2635.90,2922.01" origBoundary="-81.258535,42.977796,-81.226170,43.004136" projParameter="+proj=utm +zone=17 +ellps=WGS84 +datum=WGS84 +units=m +no_defs"/>

   <edge id=":252528002_0" function="internal">
      <lanes>
         <lane id=":252528002_0_0" depart="0" maxspeed="13.89" length="43.34" shape="2068.17,557.10 2060.17,555.42 2046.76,553.63 2033.29,552.40 2025.17,552.39"/>
      </lanes>
   </edge>
   <edge id=":252528002_1" function="internal">
      <lanes>
         <lane id=":252528002_1_0" depart="0" maxspeed="18.06" length="45.26" shape="2068.17,557.10 2060.86,554.43 2048.62,550.12 2035.48,545.55 2025.48,542.07"/>
      </lanes>
   </edge>
   <edge id=":252528002_2" function="internal">
      <lanes>
         <lane id=":252528002_2_0" depart="0" maxspeed="18.06" length="32.87" shape="2068.17,557.10 2057.76,552.06 2054.57,548.15 2058.60,545.36 2069.84,543.68"/>
      </lanes>
   </edge>
   <edge id=":252528002_3" function="internal">
      <lanes>
         <lane id=":252528002_3_0" depart="0" maxspeed="13.89" length="4.82" shape="2068.17,557.10 2067.32,555.87 2067.24,554.95 2067.93,554.34 2069.39,554.03"/>
      </lanes>
   </edge>
   <edge id=":252528002_4" function="internal">
      <lanes>
         <lane id=":252528002_4_0" depart="0" maxspeed="18.06" length="9.25" shape="2070.04,550.29 2066.83,550.76 2065.65,551.54 2066.50,552.63 2069.39,554.03"/>
      </lanes>
   </edge>
   <edge id=":252528002_5" function="internal">
      <lanes>
         <lane id=":252528002_5_0" depart="0" maxspeed="18.06" length="44.92" shape="2070.04,550.29 2059.51,550.77 2045.69,551.20 2032.84,551.70 2025.17,552.39"/>
      </lanes>
   </edge>
   <edge id=":252528002_6" function="internal">
      <lanes>
         <lane id=":252528002_6_0" depart="0" maxspeed="22.22" length="44.88" shape="2069.94,546.99 2060.11,547.00 2047.51,546.04 2035.01,544.33 2025.48,542.07"/>
      </lanes>
   </edge>
   <edge id=":252528002_7" function="internal">
      <lanes>
         <lane id=":252528002_7_0" depart="0" maxspeed="22.22" length="4.82" shape="2069.94,546.99 2068.68,546.20 2068.24,545.38 2068.63,544.55 2069.84,543.68"/>
      </lanes>
   </edge>
   <edge id=":252528002_8" function="internal">
      <lanes>
         <lane id=":252528002_8_0" depart="0" maxspeed="22.22" length="42.85" shape="2027.29,535.71 2036.51,537.94 2048.32,539.57 2060.23,540.44 2069.74,540.39"/>
      </lanes>
   </edge>
   <edge id=":252528002_9" function="internal">
      <lanes>
         <lane id=":252528002_9_0" depart="0" maxspeed="18.06" length="45.59" shape="2026.39,538.89 2036.43,542.39 2049.69,547.00 2062.04,551.35 2069.39,554.03"/>
      </lanes>
   </edge>
   <edge id=":252528002_10" function="internal">
      <lanes>
         <lane id=":252528002_10_0" depart="0" maxspeed="18.06" length="27.91" shape="2026.39,538.89 2034.91,542.74 2037.55,546.27 2034.30,549.49 2025.17,552.39"/>
      </lanes>
   </edge>
   <edge id=":252528002_11" function="internal">
      <lanes>
         <lane id=":252528002_11_0" depart="0" maxspeed="22.22" length="4.82" shape="2026.39,538.89 2027.35,540.03 2027.52,540.93 2026.90,541.61 2025.48,542.07"/>
      </lanes>
   </edge>
   <edge id=":252528002_12" function="internal">
      <lanes>
         <lane id=":252528002_12_0" depart="0" maxspeed="18.06" length="8.10" shape="2024.44,549.17 2027.03,548.34 2027.92,547.40 2027.10,546.37 2024.57,545.24"/>
      </lanes>
   </edge>
   <edge id=":252528002_13" function="internal">
      <lanes>
         <lane id=":252528002_13_0" depart="0" maxspeed="18.06" length="45.74" shape="2024.44,549.17 2032.19,547.95 2045.23,546.29 2059.22,544.70 2069.84,543.68"/>
      </lanes>
   </edge>
   <edge id=":252528002_14" function="internal">
      <lanes>
         <lane id=":252528002_14_0" depart="0" maxspeed="13.89" length="45.30" shape="2024.44,549.17 2032.87,549.20 2047.00,550.49 2061.09,552.34 2069.39,554.03"/>
      </lanes>
   </edge>
   <edge id=":252528002_15" function="internal">
      <lanes>
         <lane id=":252528002_15_0" depart="0" maxspeed="13.89" length="4.82" shape="2024.44,549.17 2025.83,549.70 2026.41,550.41 2026.20,551.31 2025.17,552.39"/>
      </lanes>
   </edge>
   <edge id=":252528006_0" function="internal">
      <lanes>
         <lane id=":252528006_0_0" depart="0" maxspeed="22.22" length="4.82" shape="2083.92,542.63 2085.21,543.36 2085.69,544.15 2085.34,545.00 2084.17,545.92"/>
      </lanes>
   </edge>
   <edge id=":253280170_0" function="internal">
      <lanes>
         <lane id=":253280170_0_0" depart="0" maxspeed="27.78" length="0.24" shape="2318.08,777.40 2317.99,777.63"/>
      </lanes>
   </edge>
   <edge id=":253280170_1" function="internal">
      <lanes>
         <lane id=":253280170_1_0" depart="0" maxspeed="27.78" length="0.74" shape="2315.18,775.84 2314.88,776.52"/>
      </lanes>
   </edge>
   <edge id=":253280170_2" function="internal">
      <lanes>
         <lane id=":253280170_2_0" depart="0" maxspeed="27.78" length="4.82" shape="2315.18,775.84 2313.86,776.54 2312.94,776.52 2312.41,775.76 2312.27,774.28"/>
      </lanes>
   </edge>
   <edge id=":253280170_3" function="internal">
      <lanes>
         <lane id=":253280170_3_0" depart="0" maxspeed="27.78" length="1.75" shape="2308.65,774.32 2309.36,772.72"/>
      </lanes>
   </edge>
   <edge id=":253280170_4" function="internal">
      <lanes>
         <lane id=":253280170_4_0" depart="0" maxspeed="27.78" length="1.24" shape="2311.77,775.42 2312.27,774.28"/>
      </lanes>
   </edge>
   <edge id=":253280170_5" function="internal">
      <lanes>
         <lane id=":253280170_5_0" depart="0" maxspeed="27.78" length="4.82" shape="2311.77,775.42 2312.96,774.53 2313.87,774.42 2314.51,775.08 2314.88,776.52"/>
      </lanes>
   </edge>
   <edge id=":253280171_0" function="internal">
      <lanes>
         <lane id=":253280171_0_0" depart="0" maxspeed="27.78" length="0.16" shape="2260.11,940.87 2260.06,941.02"/>
      </lanes>
   </edge>
   <edge id=":253280171_1" function="internal">
      <lanes>
         <lane id=":253280171_1_0" depart="0" maxspeed="27.78" length="0.48" shape="2257.00,939.76 2256.86,940.22"/>
      </lanes>
   </edge>
   <edge id=":253280171_2" function="internal">
      <lanes>
         <lane id=":253280171_2_0" depart="0" maxspeed="27.78" length="4.82" shape="2257.00,939.76 2255.81,940.65 2254.89,940.77 2254.25,940.10 2253.89,938.66"/>
      </lanes>
   </edge>
   <edge id=":253280171_3" function="internal">
      <lanes>
         <lane id=":253280171_3_0" depart="0" maxspeed="27.78" length="1.12" shape="2250.45,938.63 2250.78,937.56"/>
      </lanes>
   </edge>
   <edge id=":253280171_4" function="internal">
      <lanes>
         <lane id=":253280171_4_0" depart="0" maxspeed="27.78" length="0.80" shape="2253.66,939.43 2253.89,938.66"/>
      </lanes>
   </edge>
   <edge id=":253280171_5" function="internal">
      <lanes>
         <lane id=":253280171_5_0" depart="0" maxspeed="27.78" length="4.82" shape="2253.66,939.43 2254.75,938.42 2255.65,938.22 2256.36,938.82 2256.86,940.22"/>
      </lanes>
   </edge>
   <edge id=":253280178_0" function="internal">
      <lanes>
         <lane id=":253280178_0_0" depart="0" maxspeed="16.67" length="4.97" shape="2229.81,1162.60 2228.49,1162.30 2227.38,1162.48 2226.48,1163.15 2225.78,1164.32"/>
      </lanes>
   </edge>
   <edge id=":253280178_1" function="internal">
      <lanes>
         <lane id=":253280178_1_0" depart="0" maxspeed="16.67" length="12.27" shape="2229.81,1162.60 2226.06,1160.82 2223.51,1158.85 2222.17,1156.69 2222.03,1154.34"/>
      </lanes>
   </edge>
   <edge id=":253280178_2" function="internal">
      <lanes>
         <lane id=":253280178_2_0" depart="0" maxspeed="5.56" length="4.82" shape="2229.81,1162.60 2228.96,1161.39 2228.87,1160.47 2229.56,1159.85 2231.01,1159.53"/>
      </lanes>
   </edge>
   <edge id=":253280178_3" function="internal">
      <lanes>
         <lane id=":253280178_3_0" depart="0" maxspeed="16.67" length="5.14" shape="2228.52,1155.57 2228.47,1156.86 2228.88,1157.95 2229.72,1158.84 2231.01,1159.53"/>
      </lanes>
   </edge>
   <edge id=":253280178_4" function="internal">
      <lanes>
         <lane id=":253280178_4_0" depart="0" maxspeed="27.78" length="9.16" shape="2228.52,1155.57 2225.78,1164.32"/>
      </lanes>
   </edge>
   <edge id=":253280178_5" function="internal">
      <lanes>
         <lane id=":253280178_5_0" depart="0" maxspeed="27.78" length="8.48" shape="2225.27,1154.96 2222.74,1163.05"/>
      </lanes>
   </edge>
   <edge id=":253280178_6" function="internal">
      <lanes>
         <lane id=":253280178_6_0" depart="0" maxspeed="27.78" length="4.82" shape="2225.27,1154.96 2224.23,1156.02 2223.35,1156.27 2222.61,1155.71 2222.03,1154.34"/>
      </lanes>
   </edge>
   <edge id=":253280178_7" function="internal">
      <lanes>
         <lane id=":253280178_7_0" depart="0" maxspeed="27.78" length="7.10" shape="2216.65,1160.50 2218.79,1153.73"/>
      </lanes>
   </edge>
   <edge id=":253280178_8" function="internal">
      <lanes>
         <lane id=":253280178_8_0" depart="0" maxspeed="27.78" length="7.79" shape="2219.69,1161.77 2222.03,1154.34"/>
      </lanes>
   </edge>
   <edge id=":253280178_9" function="internal">
      <lanes>
         <lane id=":253280178_9_0" depart="0" maxspeed="16.67" length="12.92" shape="2219.69,1161.77 2221.30,1159.49 2223.72,1158.36 2226.95,1158.37 2231.01,1159.53"/>
      </lanes>
   </edge>
   <edge id=":253280178_10" function="internal">
      <lanes>
         <lane id=":253280178_10_0" depart="0" maxspeed="27.78" length="4.82" shape="2219.69,1161.77 2220.93,1160.95 2221.85,1160.89 2222.45,1161.59 2222.74,1163.05"/>
      </lanes>
   </edge>
   <edge id=":253280181_0" function="internal">
      <lanes>
         <lane id=":253280181_0_0" depart="0" maxspeed="27.78" length="5.04" shape="1748.62,2489.30 1747.27,2488.98 1746.16,2489.18 1745.28,2489.89 1744.63,2491.12"/>
      </lanes>
   </edge>
   <edge id=":253280181_1" function="internal">
      <lanes>
         <lane id=":253280181_1_0" depart="0" maxspeed="27.78" length="16.40" shape="1749.83,2486.23 1745.30,2484.45 1742.19,2483.24 1739.08,2482.06 1734.52,2480.34"/>
      </lanes>
   </edge>
   <edge id=":253280181_2" function="internal">
      <lanes>
         <lane id=":253280181_2_0" depart="0" maxspeed="27.78" length="3.31" shape="1749.83,2486.23 1748.90,2485.70"/>
      </lanes>
   </edge>
   <edge id=":253280181_18" function="internal">
      <lanes>
         <lane id=":253280181_18_0" depart="0" maxspeed="27.78" length="12.66" shape="1748.90,2485.70 1746.02,2484.08 1743.76,2481.22 1743.07,2477.68 1743.93,2473.43"/>
      </lanes>
   </edge>
   <edge id=":253280181_3" function="internal">
      <lanes>
         <lane id=":253280181_3_0" depart="0" maxspeed="27.78" length="0.10" shape="1749.83,2486.23 1749.04,2485.09"/>
      </lanes>
   </edge>
   <edge id=":253280181_19" function="internal">
      <lanes>
         <lane id=":253280181_19_0" depart="0" maxspeed="27.78" length="4.72" shape="1749.04,2485.09 1748.98,2485.01 1748.90,2484.09 1749.58,2483.47 1751.04,2483.16"/>
      </lanes>
   </edge>
   <edge id=":253280181_4" function="internal">
      <lanes>
         <lane id=":253280181_4_0" depart="0" maxspeed="27.78" length="5.56" shape="1750.15,2475.65 1749.85,2477.12 1750.11,2478.34 1750.90,2479.33 1752.24,2480.09"/>
      </lanes>
   </edge>
   <edge id=":253280181_5" function="internal">
      <lanes>
         <lane id=":253280181_5_0" depart="0" maxspeed="27.78" length="16.42" shape="1750.15,2475.65 1748.51,2480.24 1747.39,2483.38 1746.27,2486.52 1744.63,2491.12"/>
      </lanes>
   </edge>
   <edge id=":253280181_6" function="internal">
      <lanes>
         <lane id=":253280181_6_0" depart="0" maxspeed="27.78" length="16.43" shape="1747.04,2474.54 1745.40,2479.13 1744.28,2482.27 1743.16,2485.42 1741.52,2490.01"/>
      </lanes>
   </edge>
   <edge id=":253280181_7" function="internal">
      <lanes>
         <lane id=":253280181_7_0" depart="0" maxspeed="27.78" length="8.87" shape="1747.04,2474.54 1745.02,2478.38 1739.71,2481.10"/>
      </lanes>
   </edge>
   <edge id=":253280181_20" function="internal">
      <lanes>
         <lane id=":253280181_20_0" depart="0" maxspeed="27.78" length="6.93" shape="1739.71,2481.10 1738.76,2481.28 1734.52,2480.34"/>
      </lanes>
   </edge>
   <edge id=":253280181_8" function="internal">
      <lanes>
         <lane id=":253280181_8_0" depart="0" maxspeed="27.78" length="0.10" shape="1747.04,2474.54 1745.93,2475.37"/>
      </lanes>
   </edge>
   <edge id=":253280181_21" function="internal">
      <lanes>
         <lane id=":253280181_21_0" depart="0" maxspeed="27.78" length="4.72" shape="1745.93,2475.37 1745.85,2475.43 1744.93,2475.54 1744.29,2474.87 1743.93,2473.43"/>
      </lanes>
   </edge>
   <edge id=":253280181_9" function="internal">
      <lanes>
         <lane id=":253280181_9_0" depart="0" maxspeed="27.78" length="5.02" shape="1736.85,2474.16 1738.19,2474.46 1739.30,2474.25 1740.18,2473.54 1740.83,2472.32"/>
      </lanes>
   </edge>
   <edge id=":253280181_10" function="internal">
      <lanes>
         <lane id=":253280181_10_0" depart="0" maxspeed="27.78" length="16.45" shape="1735.68,2477.25 1740.25,2478.97 1743.38,2480.16 1746.49,2481.37 1751.04,2483.16"/>
      </lanes>
   </edge>
   <edge id=":253280181_11" function="internal">
      <lanes>
         <lane id=":253280181_11_0" depart="0" maxspeed="27.78" length="3.22" shape="1735.68,2477.25 1736.66,2477.79"/>
      </lanes>
   </edge>
   <edge id=":253280181_22" function="internal">
      <lanes>
         <lane id=":253280181_22_0" depart="0" maxspeed="27.78" length="12.72" shape="1736.66,2477.79 1739.48,2479.34 1741.72,2482.16 1742.40,2485.72 1741.52,2490.01"/>
      </lanes>
   </edge>
   <edge id=":253280181_12" function="internal">
      <lanes>
         <lane id=":253280181_12_0" depart="0" maxspeed="27.78" length="0.10" shape="1735.68,2477.25 1736.49,2478.38"/>
      </lanes>
   </edge>
   <edge id=":253280181_23" function="internal">
      <lanes>
         <lane id=":253280181_23_0" depart="0" maxspeed="27.78" length="4.72" shape="1736.49,2478.38 1736.55,2478.46 1736.65,2479.38 1735.97,2480.00 1734.52,2480.34"/>
      </lanes>
   </edge>
   <edge id=":253280181_13" function="internal">
      <lanes>
         <lane id=":253280181_13_0" depart="0" maxspeed="27.78" length="5.43" shape="1735.30,2487.80 1735.61,2486.32 1735.39,2485.10 1734.64,2484.14 1733.36,2483.43"/>
      </lanes>
   </edge>
   <edge id=":253280181_14" function="internal">
      <lanes>
         <lane id=":253280181_14_0" depart="0" maxspeed="27.78" length="16.43" shape="1735.30,2487.80 1736.94,2483.20 1738.06,2480.06 1739.18,2476.91 1740.83,2472.32"/>
      </lanes>
   </edge>
   <edge id=":253280181_15" function="internal">
      <lanes>
         <lane id=":253280181_15_0" depart="0" maxspeed="27.78" length="16.43" shape="1738.41,2488.90 1740.05,2484.31 1741.17,2481.17 1742.29,2478.02 1743.93,2473.43"/>
      </lanes>
   </edge>
   <edge id=":253280181_16" function="internal">
      <lanes>
         <lane id=":253280181_16_0" depart="0" maxspeed="27.78" length="8.90" shape="1738.41,2488.90 1740.46,2485.02 1745.85,2482.31"/>
      </lanes>
   </edge>
   <edge id=":253280181_24" function="internal">
      <lanes>
         <lane id=":253280181_24_0" depart="0" maxspeed="27.78" length="7.04" shape="1745.85,2482.31 1746.77,2482.15 1751.04,2483.16"/>
      </lanes>
   </edge>
   <edge id=":253280181_17" function="internal">
      <lanes>
         <lane id=":253280181_17_0" depart="0" maxspeed="27.78" length="0.10" shape="1738.41,2488.90 1739.53,2488.07"/>
      </lanes>
   </edge>
   <edge id=":253280181_25" function="internal">
      <lanes>
         <lane id=":253280181_25_0" depart="0" maxspeed="27.78" length="4.72" shape="1739.53,2488.07 1739.61,2488.02 1740.52,2487.90 1741.16,2488.57 1741.52,2490.01"/>
      </lanes>
   </edge>
   <edge id=":254506367_0" function="internal">
      <lanes>
         <lane id=":254506367_0_0" depart="0" maxspeed="13.89" length="4.82" shape="745.89,1690.42 744.69,1691.30 743.77,1691.39 743.14,1690.72 742.80,1689.27"/>
      </lanes>
   </edge>
   <edge id=":254506369_0" function="internal">
      <lanes>
         <lane id=":254506369_0_0" depart="0" maxspeed="27.78" length="0.22" shape="1208.33,450.48 1208.25,450.69"/>
      </lanes>
   </edge>
   <edge id=":254506369_1" function="internal">
      <lanes>
         <lane id=":254506369_1_0" depart="0" maxspeed="27.78" length="0.11" shape="1205.22,449.37 1205.18,449.48"/>
      </lanes>
   </edge>
   <edge id=":254506369_2" function="internal">
      <lanes>
         <lane id=":254506369_2_0" depart="0" maxspeed="27.78" length="4.82" shape="1205.22,449.37 1204.03,450.27 1203.11,450.38 1202.47,449.71 1202.11,448.27"/>
      </lanes>
   </edge>
   <edge id=":254506369_3" function="internal">
      <lanes>
         <lane id=":254506369_3_0" depart="0" maxspeed="27.78" length="0.11" shape="1199.00,447.16 1199.04,447.06"/>
      </lanes>
   </edge>
   <edge id=":254506369_4" function="internal">
      <lanes>
         <lane id=":254506369_4_0" depart="0" maxspeed="27.78" length="0.10" shape="1202.11,448.27 1202.11,448.27"/>
      </lanes>
   </edge>
   <edge id=":254506369_5" function="internal">
      <lanes>
         <lane id=":254506369_5_0" depart="0" maxspeed="27.78" length="4.82" shape="1202.11,448.27 1203.33,447.42 1204.25,447.34 1204.87,448.03 1205.18,449.48"/>
      </lanes>
   </edge>
   <edge id=":254506371_0" function="internal">
      <lanes>
         <lane id=":254506371_0_0" depart="0" maxspeed="25.00" length="5.00" shape="1278.71,269.89 1277.37,269.60 1276.26,269.81 1275.38,270.52 1274.73,271.73"/>
      </lanes>
   </edge>
   <edge id=":254506371_1" function="internal">
      <lanes>
         <lane id=":254506371_1_0" depart="0" maxspeed="25.00" length="10.34" shape="1279.86,266.79 1277.08,266.19 1274.79,266.63 1272.97,268.10 1271.63,270.60"/>
      </lanes>
   </edge>
   <edge id=":254506371_2" function="internal">
      <lanes>
         <lane id=":254506371_2_0" depart="0" maxspeed="22.22" length="16.13" shape="1279.86,266.79 1275.36,265.13 1272.29,264.00 1269.21,262.88 1264.71,261.25"/>
      </lanes>
   </edge>
   <edge id=":254506371_3" function="internal">
      <lanes>
         <lane id=":254506371_3_0" depart="0" maxspeed="22.22" length="0.10" shape="1279.86,266.79 1279.04,265.67"/>
      </lanes>
   </edge>
   <edge id=":254506371_11" function="internal">
      <lanes>
         <lane id=":254506371_11_0" depart="0" maxspeed="22.22" length="4.72" shape="1279.04,265.67 1278.98,265.59 1278.88,264.67 1279.55,264.04 1281.00,263.69"/>
      </lanes>
   </edge>
   <edge id=":254506371_4" function="internal">
      <lanes>
         <lane id=":254506371_4_0" depart="0" maxspeed="22.22" length="16.18" shape="1266.95,255.04 1271.47,256.68 1274.56,257.80 1277.64,258.94 1282.14,260.60"/>
      </lanes>
   </edge>
   <edge id=":254506371_5" function="internal">
      <lanes>
         <lane id=":254506371_5_0" depart="0" maxspeed="25.00" length="8.85" shape="1265.83,258.14 1269.62,260.16 1272.33,265.39"/>
      </lanes>
   </edge>
   <edge id=":254506371_12" function="internal">
      <lanes>
         <lane id=":254506371_12_0" depart="0" maxspeed="25.00" length="6.83" shape="1272.33,265.39 1272.52,266.39 1271.63,270.60"/>
      </lanes>
   </edge>
   <edge id=":254506371_6" function="internal">
      <lanes>
         <lane id=":254506371_6_0" depart="0" maxspeed="22.22" length="0.10" shape="1265.83,258.14 1266.65,259.26"/>
      </lanes>
   </edge>
   <edge id=":254506371_13" function="internal">
      <lanes>
         <lane id=":254506371_13_0" depart="0" maxspeed="22.22" length="4.72" shape="1266.65,259.26 1266.71,259.34 1266.82,260.26 1266.15,260.89 1264.71,261.25"/>
      </lanes>
   </edge>
   <edge id=":254506371_7" function="internal">
      <lanes>
         <lane id=":254506371_7_0" depart="0" maxspeed="25.00" length="5.01" shape="1265.43,268.34 1265.72,266.99 1265.50,265.87 1264.79,265.00 1263.58,264.35"/>
      </lanes>
   </edge>
   <edge id=":254506371_8" function="internal">
      <lanes>
         <lane id=":254506371_8_0" depart="0" maxspeed="25.00" length="10.34" shape="1268.53,269.47 1269.12,266.69 1268.68,264.39 1267.21,262.58 1264.71,261.25"/>
      </lanes>
   </edge>
   <edge id=":254506371_9" function="internal">
      <lanes>
         <lane id=":254506371_9_0" depart="0" maxspeed="25.00" length="15.68" shape="1268.53,269.47 1270.56,265.68 1273.32,263.45 1276.80,262.79 1281.00,263.69"/>
      </lanes>
   </edge>
   <edge id=":254506371_10" function="internal">
      <lanes>
         <lane id=":254506371_10_0" depart="0" maxspeed="27.78" length="0.10" shape="1268.53,269.47 1269.65,268.65"/>
      </lanes>
   </edge>
   <edge id=":254506371_14" function="internal">
      <lanes>
         <lane id=":254506371_14_0" depart="0" maxspeed="27.78" length="4.72" shape="1269.65,268.65 1269.73,268.59 1270.65,268.48 1271.28,269.15 1271.63,270.60"/>
      </lanes>
   </edge>
   <edge id=":258961689_0" function="internal">
      <lanes>
         <lane id=":258961689_0_0" depart="0" maxspeed="20.83" length="5.00" shape="1082.78,794.70 1081.44,794.41 1080.33,794.62 1079.45,795.32 1078.79,796.52"/>
      </lanes>
   </edge>
   <edge id=":258961689_1" function="internal">
      <lanes>
         <lane id=":258961689_1_0" depart="0" maxspeed="13.89" length="16.10" shape="1082.78,794.70 1079.10,793.33 1075.24,791.89 1071.37,790.45 1067.69,789.08"/>
      </lanes>
   </edge>
   <edge id=":258961689_2" function="internal">
      <lanes>
         <lane id=":258961689_2_0" depart="0" maxspeed="20.83" length="3.12" shape="1082.78,794.70 1081.75,794.20"/>
      </lanes>
   </edge>
   <edge id=":258961689_18" function="internal">
      <lanes>
         <lane id=":258961689_18_0" depart="0" maxspeed="20.83" length="9.98" shape="1081.75,794.20 1078.94,792.84 1076.52,790.66 1075.51,788.15 1075.92,785.32"/>
      </lanes>
   </edge>
   <edge id=":258961689_3" function="internal">
      <lanes>
         <lane id=":258961689_3_0" depart="0" maxspeed="13.89" length="0.10" shape="1082.78,794.70 1081.97,793.58"/>
      </lanes>
   </edge>
   <edge id=":258961689_19" function="internal">
      <lanes>
         <lane id=":258961689_19_0" depart="0" maxspeed="13.89" length="4.72" shape="1081.97,793.58 1081.91,793.50 1081.81,792.58 1082.49,791.95 1083.93,791.61"/>
      </lanes>
   </edge>
   <edge id=":258961689_4" function="internal">
      <lanes>
         <lane id=":258961689_4_0" depart="0" maxspeed="20.83" length="5.00" shape="1082.11,787.62 1081.82,788.96 1082.02,790.07 1082.73,790.95 1083.93,791.61"/>
      </lanes>
   </edge>
   <edge id=":258961689_5" function="internal">
      <lanes>
         <lane id=":258961689_5_0" depart="0" maxspeed="27.78" length="9.50" shape="1082.11,787.62 1078.79,796.52"/>
      </lanes>
   </edge>
   <edge id=":258961689_6" function="internal">
      <lanes>
         <lane id=":258961689_6_0" depart="0" maxspeed="27.78" length="9.50" shape="1079.01,786.47 1075.70,795.37"/>
      </lanes>
   </edge>
   <edge id=":258961689_7" function="internal">
      <lanes>
         <lane id=":258961689_7_0" depart="0" maxspeed="20.83" length="6.51" shape="1079.01,786.47 1077.47,788.88 1072.75,790.17"/>
      </lanes>
   </edge>
   <edge id=":258961689_20" function="internal">
      <lanes>
         <lane id=":258961689_20_0" depart="0" maxspeed="20.83" length="6.58" shape="1072.75,790.17 1071.81,790.19 1067.69,789.08"/>
      </lanes>
   </edge>
   <edge id=":258961689_8" function="internal">
      <lanes>
         <lane id=":258961689_8_0" depart="0" maxspeed="27.78" length="0.10" shape="1079.01,786.47 1077.89,787.28"/>
      </lanes>
   </edge>
   <edge id=":258961689_21" function="internal">
      <lanes>
         <lane id=":258961689_21_0" depart="0" maxspeed="27.78" length="4.72" shape="1077.89,787.28 1077.81,787.34 1076.89,787.44 1076.26,786.76 1075.92,785.32"/>
      </lanes>
   </edge>
   <edge id=":258961689_9" function="internal">
      <lanes>
         <lane id=":258961689_9_0" depart="0" maxspeed="20.83" length="5.00" shape="1068.84,785.99 1070.18,786.28 1071.29,786.07 1072.17,785.37 1072.83,784.17"/>
      </lanes>
   </edge>
   <edge id=":258961689_10" function="internal">
      <lanes>
         <lane id=":258961689_10_0" depart="0" maxspeed="13.89" length="16.11" shape="1068.84,785.99 1072.52,787.36 1076.39,788.80 1080.26,790.24 1083.93,791.61"/>
      </lanes>
   </edge>
   <edge id=":258961689_11" function="internal">
      <lanes>
         <lane id=":258961689_11_0" depart="0" maxspeed="20.83" length="3.12" shape="1068.84,785.99 1069.87,786.49"/>
      </lanes>
   </edge>
   <edge id=":258961689_22" function="internal">
      <lanes>
         <lane id=":258961689_22_0" depart="0" maxspeed="20.83" length="9.98" shape="1069.87,786.49 1072.68,787.84 1075.10,790.03 1076.11,792.53 1075.70,795.37"/>
      </lanes>
   </edge>
   <edge id=":258961689_12" function="internal">
      <lanes>
         <lane id=":258961689_12_0" depart="0" maxspeed="13.89" length="0.10" shape="1068.84,785.99 1069.65,787.11"/>
      </lanes>
   </edge>
   <edge id=":258961689_23" function="internal">
      <lanes>
         <lane id=":258961689_23_0" depart="0" maxspeed="13.89" length="4.72" shape="1069.65,787.11 1069.71,787.19 1069.81,788.11 1069.14,788.74 1067.69,789.08"/>
      </lanes>
   </edge>
   <edge id=":258961689_13" function="internal">
      <lanes>
         <lane id=":258961689_13_0" depart="0" maxspeed="20.83" length="5.00" shape="1069.51,793.07 1069.81,791.73 1069.60,790.62 1068.89,789.74 1067.69,789.08"/>
      </lanes>
   </edge>
   <edge id=":258961689_14" function="internal">
      <lanes>
         <lane id=":258961689_14_0" depart="0" maxspeed="27.78" length="9.50" shape="1069.51,793.07 1072.83,784.17"/>
      </lanes>
   </edge>
   <edge id=":258961689_15" function="internal">
      <lanes>
         <lane id=":258961689_15_0" depart="0" maxspeed="27.78" length="9.50" shape="1072.61,794.22 1075.92,785.32"/>
      </lanes>
   </edge>
   <edge id=":258961689_16" function="internal">
      <lanes>
         <lane id=":258961689_16_0" depart="0" maxspeed="20.83" length="6.51" shape="1072.61,794.22 1074.15,791.81 1078.88,790.52"/>
      </lanes>
   </edge>
   <edge id=":258961689_24" function="internal">
      <lanes>
         <lane id=":258961689_24_0" depart="0" maxspeed="20.83" length="6.59" shape="1078.88,790.52 1079.82,790.50 1083.93,791.61"/>
      </lanes>
   </edge>
   <edge id=":258961689_17" function="internal">
      <lanes>
         <lane id=":258961689_17_0" depart="0" maxspeed="27.78" length="0.10" shape="1072.61,794.22 1073.73,793.41"/>
      </lanes>
   </edge>
   <edge id=":258961689_25" function="internal">
      <lanes>
         <lane id=":258961689_25_0" depart="0" maxspeed="27.78" length="4.72" shape="1073.73,793.41 1073.81,793.35 1074.73,793.25 1075.36,793.93 1075.70,795.37"/>
      </lanes>
   </edge>
   <edge id=":258961690_0" function="internal">
      <lanes>
         <lane id=":258961690_0_0" depart="0" maxspeed="27.78" length="5.11" shape="2203.76,1225.55 2202.37,1225.25 2201.22,1225.45 2200.32,1226.16 2199.67,1227.37"/>
      </lanes>
   </edge>
   <edge id=":258961690_1" function="internal">
      <lanes>
         <lane id=":258961690_1_0" depart="0" maxspeed="20.83" length="16.21" shape="2203.76,1225.55 2200.07,1224.20 2196.16,1222.75 2192.25,1221.29 2188.56,1219.91"/>
      </lanes>
   </edge>
   <edge id=":258961690_2" function="internal">
      <lanes>
         <lane id=":258961690_2_0" depart="0" maxspeed="27.78" length="13.40" shape="2203.76,1225.55 2199.85,1223.67 2197.42,1221.43 2196.49,1218.84 2197.05,1215.89"/>
      </lanes>
   </edge>
   <edge id=":258961690_3" function="internal">
      <lanes>
         <lane id=":258961690_3_0" depart="0" maxspeed="27.78" length="4.82" shape="2203.76,1225.55 2202.89,1224.35 2202.78,1223.44 2203.45,1222.81 2204.90,1222.46"/>
      </lanes>
   </edge>
   <edge id=":258961690_4" function="internal">
      <lanes>
         <lane id=":258961690_4_0" depart="0" maxspeed="27.78" length="5.05" shape="2203.14,1218.44 2202.79,1219.79 2202.97,1220.91 2203.67,1221.80 2204.90,1222.46"/>
      </lanes>
   </edge>
   <edge id=":258961690_5" function="internal">
      <lanes>
         <lane id=":258961690_5_0" depart="0" maxspeed="27.78" length="9.59" shape="2203.14,1218.44 2199.67,1227.37"/>
      </lanes>
   </edge>
   <edge id=":258961690_6" function="internal">
      <lanes>
         <lane id=":258961690_6_0" depart="0" maxspeed="27.78" length="9.76" shape="2200.10,1217.16 2196.57,1226.26"/>
      </lanes>
   </edge>
   <edge id=":258961690_7" function="internal">
      <lanes>
         <lane id=":258961690_7_0" depart="0" maxspeed="20.83" length="13.30" shape="2200.10,1217.16 2198.42,1219.63 2195.93,1220.91 2192.65,1221.01 2188.56,1219.91"/>
      </lanes>
   </edge>
   <edge id=":258961690_8" function="internal">
      <lanes>
         <lane id=":258961690_8_0" depart="0" maxspeed="27.78" length="4.82" shape="2200.10,1217.16 2198.86,1217.99 2197.94,1218.05 2197.34,1217.35 2197.05,1215.89"/>
      </lanes>
   </edge>
   <edge id=":258961690_9" function="internal">
      <lanes>