<?xml version="1.0"?>

<!-- generated on 03/16/11 10:45:23 by SUMO netconvert Version 0.12.2
<?xml version="1.0" encoding="iso-8859-1"?>

<configuration xmlns:xsi="http://www.w3.org/2001/XMLSchema-instance" xsi:noNamespaceSchemaLocation="http://sumo.sf.net/xsd/netconvertConfiguration.xsd">

    <input>
        <osm-files value="london.osm"/>
    </input>

    <output>
        <output-file value="london.net.xml"/>
    </output>

    <projection>
        <proj.utm value="true"/>
    </projection>

</configuration>
-->

<net>

   <location netOffset="-478870.63,-4758306.50" convBoundary="0.00,0.00,2712.88,3133.55" origBoundary="-81.259196,42.977153,-81.225905,43.005372" projParameter="+proj=utm +zone=17 +ellps=WGS84 +datum=WGS84 +units=m +no_defs"/>

   <edge id=":252527989_0" function="internal">
      <lanes>
         <lane id=":252527989_0_0" depart="0" maxspeed="22.22" length="4.82" shape="409.46,15.00 408.30,14.06 407.97,13.21 408.45,12.42 409.76,11.71"/>
      </lanes>
   </edge>
   <edge id=":252528002_0" function="internal">
      <lanes>
         <lane id=":252528002_0_0" depart="0" maxspeed="13.89" length="43.34" shape="2123.55,630.41 2115.56,628.74 2102.14,626.95 2088.68,625.71 2080.55,625.70"/>
      </lanes>
   </edge>
   <edge id=":252528002_1" function="internal">
      <lanes>
         <lane id=":252528002_1_0" depart="0" maxspeed="18.06" length="45.26" shape="2123.55,630.41 2116.25,627.75 2104.00,623.44 2090.86,618.86 2080.86,615.38"/>
      </lanes>
   </edge>
   <edge id=":252528002_2" function="internal">
      <lanes>
         <lane id=":252528002_2_0" depart="0" maxspeed="18.06" length="32.87" shape="2123.55,630.41 2113.14,625.38 2109.96,621.47 2113.98,618.67 2125.22,617.00"/>
      </lanes>
   </edge>
   <edge id=":252528002_3" function="internal">
      <lanes>
         <lane id=":252528002_3_0" depart="0" maxspeed="13.89" length="4.82" shape="2123.55,630.41 2122.70,629.19 2122.63,628.27 2123.32,627.66 2124.77,627.35"/>
      </lanes>
   </edge>
   <edge id=":252528002_4" function="internal">
      <lanes>
         <lane id=":252528002_4_0" depart="0" maxspeed="18.06" length="9.21" shape="2125.42,623.60 2122.23,624.08 2121.05,624.86 2121.90,625.95 2124.77,627.35"/>
      </lanes>
   </edge>
   <edge id=":252528002_5" function="internal">
      <lanes>
         <lane id=":252528002_5_0" depart="0" maxspeed="18.06" length="44.92" shape="2125.42,623.60 2114.89,624.10 2101.08,624.52 2088.22,625.01 2080.55,625.70"/>
      </lanes>
   </edge>
   <edge id=":252528002_6" function="internal">
      <lanes>
         <lane id=":252528002_6_0" depart="0" maxspeed="22.22" length="45.89" shape="2125.42,623.60 2115.44,623.60 2102.49,622.60 2089.64,620.84 2079.95,618.56"/>
      </lanes>
   </edge>
   <edge id=":252528002_7" function="internal">
      <lanes>
         <lane id=":252528002_7_0" depart="0" maxspeed="22.22" length="44.88" shape="2125.32,620.30 2115.49,620.31 2102.89,619.36 2090.39,617.65 2080.86,615.38"/>
      </lanes>
   </edge>
   <edge id=":252528002_8" function="internal">
      <lanes>
         <lane id=":252528002_8_0" depart="0" maxspeed="22.22" length="4.82" shape="2125.32,620.30 2124.06,619.51 2123.62,618.70 2124.01,617.86 2125.22,617.00"/>
      </lanes>
   </edge>
   <edge id=":252528002_9" function="internal">
      <lanes>
         <lane id=":252528002_9_0" depart="0" maxspeed="22.22" length="42.85" shape="2082.68,609.03 2091.89,611.26 2103.70,612.88 2115.61,613.75 2125.12,613.70"/>
      </lanes>
   </edge>
   <edge id=":252528002_10" function="internal">
      <lanes>
         <lane id=":252528002_10_0" depart="0" maxspeed="18.06" length="45.59" shape="2081.77,612.21 2091.82,615.70 2105.07,620.32 2117.42,624.66 2124.77,627.35"/>
      </lanes>
   </edge>
   <edge id=":252528002_11" function="internal">
      <lanes>
         <lane id=":252528002_11_0" depart="0" maxspeed="18.06" length="27.91" shape="2081.77,612.21 2090.29,616.05 2092.93,619.59 2089.68,622.80 2080.55,625.70"/>
      </lanes>
   </edge>
   <edge id=":252528002_12" function="internal">
      <lanes>
         <lane id=":252528002_12_0" depart="0" maxspeed="22.22" length="4.82" shape="2081.77,612.21 2082.73,613.34 2082.90,614.25 2082.28,614.93 2080.86,615.38"/>
      </lanes>
   </edge>
   <edge id=":252528002_13" function="internal">
      <lanes>
         <lane id=":252528002_13_0" depart="0" maxspeed="18.06" length="8.10" shape="2079.82,622.48 2082.42,621.65 2083.30,620.72 2082.48,619.69 2079.95,618.56"/>
      </lanes>
   </edge>
   <edge id=":252528002_14" function="internal">
      <lanes>
         <lane id=":252528002_14_0" depart="0" maxspeed="18.06" length="45.74" shape="2079.82,622.48 2087.57,621.27 2100.61,619.61 2114.61,618.02 2125.22,617.00"/>
      </lanes>
   </edge>
   <edge id=":252528002_15" function="internal">
      <lanes>
         <lane id=":252528002_15_0" depart="0" maxspeed="13.89" length="45.30" shape="2079.82,622.48 2088.25,622.52 2102.38,623.81 2116.47,625.65 2124.77,627.35"/>
      </lanes>
   </edge>
   <edge id=":252528002_16" function="internal">
      <lanes>
         <lane id=":252528002_16_0" depart="0" maxspeed="13.89" length="4.82" shape="2079.82,622.48 2081.21,623.01 2081.80,623.73 2081.58,624.62 2080.55,625.70"/>
      </lanes>
   </edge>
   <edge id=":253280166_0" function="internal">
      <lanes>
         <lane id=":253280166_0_0" depart="0" maxspeed="27.78" length="18.37" shape="2501.98,529.53 2500.35,534.73 2499.23,538.29 2498.12,541.85 2496.50,547.06"/>
      </lanes>
   </edge>
   <edge id=":253280166_1" function="internal">
      <lanes>
         <lane id=":253280166_1_0" depart="0" maxspeed="27.78" length="18.37" shape="2498.84,528.54 2497.20,533.74 2496.09,537.30 2494.97,540.87 2493.35,546.07"/>
      </lanes>
   </edge>
   <edge id=":253280166_2" function="internal">
      <lanes>
         <lane id=":253280166_2_0" depart="0" maxspeed="25.00" length="18.71" shape="2498.84,528.54 2497.18,531.29 2494.04,533.75 2489.42,535.93 2483.31,537.82"/>
      </lanes>
   </edge>
   <edge id=":253280166_3" function="internal">
      <lanes>
         <lane id=":253280166_3_0" depart="0" maxspeed="27.78" length="4.82" shape="2498.84,528.54 2497.68,529.47 2496.77,529.62 2496.10,528.98 2495.69,527.55"/>
      </lanes>
   </edge>
   <edge id=":253280166_4" function="internal">
      <lanes>
         <lane id=":253280166_4_0" depart="0" maxspeed="25.00" length="12.12" shape="2481.68,531.42 2486.16,530.15 2489.47,528.91 2491.59,527.72 2492.54,526.56"/>
      </lanes>
   </edge>
   <edge id=":253280166_5" function="internal">
      <lanes>
         <lane id=":253280166_5_0" depart="0" maxspeed="25.00" length="21.85" shape="2482.49,534.62 2489.05,533.84 2493.05,535.49 2494.48,539.57 2493.35,546.07"/>
      </lanes>
   </edge>
   <edge id=":253280166_6" function="internal">
      <lanes>
         <lane id=":253280166_6_0" depart="0" maxspeed="22.22" length="4.82" shape="2482.49,534.62 2483.90,535.11 2484.50,535.81 2484.30,536.71 2483.31,537.82"/>
      </lanes>
   </edge>
   <edge id=":253280166_7" function="internal">
      <lanes>
         <lane id=":253280166_7_0" depart="0" maxspeed="25.00" length="5.89" shape="2487.05,544.10 2487.35,542.35 2486.97,541.25 2485.89,540.80 2484.12,541.01"/>
      </lanes>
   </edge>
   <edge id=":253280166_8" function="internal">
      <lanes>
         <lane id=":253280166_8_0" depart="0" maxspeed="27.78" length="18.39" shape="2487.05,544.10 2488.67,538.89 2489.79,535.33 2490.90,531.77 2492.54,526.56"/>
      </lanes>
   </edge>
   <edge id=":253280166_9" function="internal">
      <lanes>
         <lane id=":253280166_9_0" depart="0" maxspeed="27.78" length="18.38" shape="2490.20,545.09 2491.82,539.88 2492.94,536.32 2494.05,532.75 2495.69,527.55"/>
      </lanes>
   </edge>
   <edge id=":253280166_10" function="internal">
      <lanes>
         <lane id=":253280166_10_0" depart="0" maxspeed="27.78" length="4.82" shape="2490.20,545.09 2491.35,544.15 2492.26,544.01 2492.93,544.65 2493.35,546.07"/>
      </lanes>
   </edge>
   <edge id=":253280170_0" function="internal">
      <lanes>
         <lane id=":253280170_0_0" depart="0" maxspeed="27.78" length="0.24" shape="2373.47,850.72 2373.37,850.94"/>
      </lanes>
   </edge>
   <edge id=":253280170_1" function="internal">
      <lanes>
         <lane id=":253280170_1_0" depart="0" maxspeed="27.78" length="0.74" shape="2370.56,849.16 2370.26,849.84"/>
      </lanes>
   </edge>
   <edge id=":253280170_2" function="internal">
      <lanes>
         <lane id=":253280170_2_0" depart="0" maxspeed="27.78" length="4.82" shape="2370.56,849.16 2369.25,849.86 2368.32,849.83 2367.79,849.08 2367.65,847.60"/>
      </lanes>
   </edge>
   <edge id=":253280170_3" function="internal">
      <lanes>
         <lane id=":253280170_3_0" depart="0" maxspeed="27.78" length="1.75" shape="2364.04,847.63 2364.74,846.04"/>
      </lanes>
   </edge>
   <edge id=":253280170_4" function="internal">
      <lanes>
         <lane id=":253280170_4_0" depart="0" maxspeed="27.78" length="1.24" shape="2367.15,848.73 2367.65,847.60"/>
      </lanes>
   </edge>
   <edge id=":253280170_5" function="internal">
      <lanes>
         <lane id=":253280170_5_0" depart="0" maxspeed="27.78" length="4.82" shape="2367.15,848.73 2368.34,847.84 2369.25,847.73 2369.89,848.40 2370.26,849.84"/>
      </lanes>
   </edge>
   <edge id=":253280171_0" function="internal">
      <lanes>
         <lane id=":253280171_0_0" depart="0" maxspeed="27.78" length="0.16" shape="2315.49,1014.18 2315.44,1014.33"/>
      </lanes>
   </edge>
   <edge id=":253280171_1" function="internal">
      <lanes>
         <lane id=":253280171_1_0" depart="0" maxspeed="27.78" length="0.48" shape="2312.38,1013.08 2312.24,1013.54"/>
      </lanes>
   </edge>
   <edge id=":253280171_2" function="internal">
      <lanes>
         <lane id=":253280171_2_0" depart="0" maxspeed="27.78" length="4.82" shape="2312.38,1013.08 2311.19,1013.97 2310.27,1014.08 2309.63,1013.42 2309.27,1011.98"/>
      </lanes>
   </edge>
   <edge id=":253280171_3" function="internal">
      <lanes>
         <lane id=":253280171_3_0" depart="0" maxspeed="27.78" length="1.12" shape="2305.83,1011.95 2306.16,1010.87"/>
      </lanes>
   </edge>
   <edge id=":253280171_4" function="internal">
      <lanes>
         <lane id=":253280171_4_0" depart="0" maxspeed="27.78" length="0.80" shape="2309.04,1012.74 2309.27,1011.98"/>
      </lanes>
   </edge>
   <edge id=":253280171_5" function="internal">
      <lanes>
         <lane id=":253280171_5_0" depart="0" maxspeed="27.78" length="4.82" shape="2309.04,1012.74 2310.14,1011.74 2311.04,1011.54 2311.74,1012.14 2312.24,1013.54"/>
      </lanes>
   </edge>
   <edge id=":253280178_0" function="internal">
      <lanes>
         <lane id=":253280178_0_0" depart="0" maxspeed="16.67" length="4.97" shape="2285.20,1235.92 2283.87,1235.61 2282.76,1235.79 2281.86,1236.47 2281.16,1237.63"/>
      </lanes>
   </edge>
   <edge id=":253280178_1" function="internal">
      <lanes>
         <lane id=":253280178_1_0" depart="0" maxspeed="16.67" length="12.27" shape="2285.20,1235.92 2281.44,1234.13 2278.90,1232.16 2277.55,1230.00 2277.41,1227.66"/>
      </lanes>
   </edge>
   <edge id=":253280178_2" function="internal">
      <lanes>
         <lane id=":253280178_2_0" depart="0" maxspeed="5.56" length="4.82" shape="2285.20,1235.92 2284.34,1234.70 2284.25,1233.78 2284.94,1233.16 2286.39,1232.84"/>
      </lanes>
   </edge>
   <edge id=":253280178_3" function="internal">
      <lanes>
         <lane id=":253280178_3_0" depart="0" maxspeed="16.67" length="5.14" shape="2283.90,1228.89 2283.86,1230.18 2284.26,1231.27 2285.10,1232.16 2286.39,1232.84"/>
      </lanes>
   </edge>
   <edge id=":253280178_4" function="internal">
      <lanes>
         <lane id=":253280178_4_0" depart="0" maxspeed="27.78" length="9.16" shape="2283.90,1228.89 2281.16,1237.63"/>
      </lanes>
   </edge>
   <edge id=":253280178_5" function="internal">
      <lanes>
         <lane id=":253280178_5_0" depart="0" maxspeed="27.78" length="8.48" shape="2280.66,1228.27 2278.12,1236.36"/>
      </lanes>
   </edge>
   <edge id=":253280178_6" function="internal">
      <lanes>
         <lane id=":253280178_6_0" depart="0" maxspeed="27.78" length="4.82" shape="2280.66,1228.27 2279.61,1229.33 2278.73,1229.59 2277.99,1229.03 2277.41,1227.66"/>
      </lanes>
   </edge>
   <edge id=":253280178_7" function="internal">
      <lanes>
         <lane id=":253280178_7_0" depart="0" maxspeed="27.78" length="7.10" shape="2272.03,1233.81 2274.17,1227.04"/>
      </lanes>
   </edge>
   <edge id=":253280178_8" function="internal">
      <lanes>
         <lane id=":253280178_8_0" depart="0" maxspeed="27.78" length="7.79" shape="2275.07,1235.09 2277.41,1227.66"/>
      </lanes>
   </edge>
   <edge id=":253280178_9" function="internal">
      <lanes>
         <lane id=":253280178_9_0" depart="0" maxspeed="16.67" length="12.92" shape="2275.07,1235.09 2276.68,1232.80 2279.10,1231.67 2282.34,1231.68 2286.39,1232.84"/>
      </lanes>
   </edge>
   <edge id=":253280178_10" function="internal">
      <lanes>
         <lane id=":253280178_10_0" depart="0" maxspeed="27.78" length="4.82" shape="2275.07,1235.09 2276.31,1234.26 2277.23,1234.20 2277.83,1234.90 2278.12,1236.36"/>
      </lanes>
   </edge>
   <edge id=":253280181_0" function="internal">
      <lanes>
         <lane id=":253280181_0_0" depart="0" maxspeed="27.78" length="5.04" shape="1804.00,2562.62 1802.65,2562.30 1801.54,2562.49 1800.66,2563.20 1800.01,2564.43"/>
      </lanes>
   </edge>
   <edge id=":253280181_1" function="internal">
      <lanes>
         <lane id=":253280181_1_0" depart="0" maxspeed="27.78" length="16.40" shape="1805.21,2559.54 1800.68,2557.76 1797.57,2556.56 1794.46,2555.37 1789.90,2553.65"/>
      </lanes>
   </edge>
   <edge id=":253280181_2" function="internal">
      <lanes>
         <lane id=":253280181_2_0" depart="0" maxspeed="27.78" length="3.31" shape="1805.21,2559.54 1804.28,2559.02"/>
      </lanes>
   </edge>
   <edge id=":253280181_18" function="internal">
      <lanes>
         <lane id=":253280181_18_0" depart="0" maxspeed="27.78" length="12.66" shape="1804.28,2559.02 1801.40,2557.39 1799.15,2554.54 1798.45,2550.99 1799.31,2546.74"/>
      </lanes>
   </edge>
   <edge id=":253280181_3" function="internal">
      <lanes>
         <lane id=":253280181_3_0" depart="0" maxspeed="27.78" length="0.10" shape="1805.21,2559.54 1804.42,2558.41"/>
      </lanes>
   </edge>
   <edge id=":253280181_19" function="internal">
      <lanes>
         <lane id=":253280181_19_0" depart="0" maxspeed="27.78" length="4.72" shape="1804.42,2558.41 1804.36,2558.32 1804.28,2557.41 1804.97,2556.79 1806.42,2556.47"/>
      </lanes>
   </edge>
   <edge id=":253280181_4" function="internal">
      <lanes>
         <lane id=":253280181_4_0" depart="0" maxspeed="27.78" length="5.56" shape="1805.53,2548.96 1805.24,2550.43 1805.49,2551.66 1806.28,2552.65 1807.63,2553.40"/>
      </lanes>
   </edge>
   <edge id=":253280181_5" function="internal">
      <lanes>
         <lane id=":253280181_5_0" depart="0" maxspeed="27.78" length="16.42" shape="1805.53,2548.96 1803.89,2553.56 1802.77,2556.70 1801.65,2559.84 1800.01,2564.43"/>
      </lanes>
   </edge>
   <edge id=":253280181_6" function="internal">
      <lanes>
         <lane id=":253280181_6_0" depart="0" maxspeed="27.78" length="16.43" shape="1802.42,2547.85 1800.78,2552.45 1799.66,2555.59 1798.54,2558.73 1796.90,2563.33"/>
      </lanes>
   </edge>
   <edge id=":253280181_7" function="internal">
      <lanes>
         <lane id=":253280181_7_0" depart="0" maxspeed="27.78" length="8.87" shape="1802.42,2547.85 1800.40,2551.69 1795.09,2554.41"/>
      </lanes>
   </edge>
   <edge id=":253280181_20" function="internal">
      <lanes>
         <lane id=":253280181_20_0" depart="0" maxspeed="27.78" length="6.93" shape="1795.09,2554.41 1794.14,2554.59 1789.90,2553.65"/>
      </lanes>
   </edge>
   <edge id=":253280181_8" function="internal">
      <lanes>
         <lane id=":253280181_8_0" depart="0" maxspeed="27.78" length="0.10" shape="1802.42,2547.85 1801.31,2548.68"/>
      </lanes>
   </edge>
   <edge id=":253280181_21" function="internal">
      <lanes>
         <lane id=":253280181_21_0" depart="0" maxspeed="27.78" length="4.72" shape="1801.31,2548.68 1801.23,2548.74 1800.31,2548.85 1799.68,2548.19 1799.31,2546.74"/>
      </lanes>
   </edge>
   <edge id=":253280181_9" function="internal">
      <lanes>
         <lane id=":253280181_9_0" depart="0" maxspeed="27.78" length="5.02" shape="1792.23,2547.48 1793.57,2547.77 1794.69,2547.57 1795.56,2546.85 1796.21,2545.63"/>
      </lanes>
   </edge>
   <edge id=":253280181_10" function="internal">
      <lanes>
         <lane id=":253280181_10_0" depart="0" maxspeed="27.78" length="16.45" shape="1791.07,2550.56 1795.64,2552.29 1798.76,2553.48 1801.87,2554.69 1806.42,2556.47"/>
      </lanes>
   </edge>
   <edge id=":253280181_11" function="internal">
      <lanes>
         <lane id=":253280181_11_0" depart="0" maxspeed="27.78" length="3.22" shape="1791.07,2550.56 1792.04,2551.10"/>
      </lanes>
   </edge>
   <edge id=":253280181_22" function="internal">
      <lanes>
         <lane id=":253280181_22_0" depart="0" maxspeed="27.78" length="12.72" shape="1792.04,2551.10 1794.86,2552.65 1797.10,2555.48 1797.78,2559.03 1796.90,2563.33"/>
      </lanes>
   </edge>
   <edge id=":253280181_12" function="internal">
      <lanes>
         <lane id=":253280181_12_0" depart="0" maxspeed="27.78" length="0.10" shape="1791.07,2550.56 1791.87,2551.69"/>
      </lanes>
   </edge>
   <edge id=":253280181_23" function="internal">
      <lanes>
         <lane id=":253280181_23_0" depart="0" maxspeed="27.78" length="4.72" shape="1791.87,2551.69 1791.93,2551.77 1792.03,2552.69 1791.35,2553.32 1789.90,2553.65"/>
      </lanes>
   </edge>
   <edge id=":253280181_13" function="internal">
      <lanes>
         <lane id=":253280181_13_0" depart="0" maxspeed="27.78" length="5.43" shape="1790.69,2561.11 1790.99,2559.64 1790.77,2558.42 1790.02,2557.45 1788.74,2556.74"/>
      </lanes>
   </edge>
   <edge id=":253280181_14" function="internal">
      <lanes>
         <lane id=":253280181_14_0" depart="0" maxspeed="27.78" length="16.43" shape="1790.69,2561.11 1792.32,2556.52 1793.44,2553.37 1794.57,2550.23 1796.21,2545.63"/>
      </lanes>
   </edge>
   <edge id=":253280181_15" function="internal">
      <lanes>
         <lane id=":253280181_15_0" depart="0" maxspeed="27.78" length="16.43" shape="1793.80,2562.22 1795.43,2557.62 1796.55,2554.48 1797.67,2551.34 1799.31,2546.74"/>
      </lanes>
   </edge>
   <edge id=":253280181_16" function="internal">
      <lanes>
         <lane id=":253280181_16_0" depart="0" maxspeed="27.78" length="8.90" shape="1793.80,2562.22 1795.84,2558.34 1801.23,2555.63"/>
      </lanes>
   </edge>
   <edge id=":253280181_24" function="internal">
      <lanes>
         <lane id=":253280181_24_0" depart="0" maxspeed="27.78" length="7.04" shape="1801.23,2555.63 1802.15,2555.46 1806.42,2556.47"/>
      </lanes>
   </edge>
   <edge id=":253280181_17" function="internal">
      <lanes>
         <lane id=":253280181_17_0" depart="0" maxspeed="27.78" length="0.10" shape="1793.80,2562.22 1794.91,2561.39"/>
      </lanes>
   </edge>
   <edge id=":253280181_25" function="internal">
      <lanes>
         <lane id=":253280181_25_0" depart="0" maxspeed="27.78" length="4.72" shape="1794.91,2561.39 1794.99,2561.33 1795.90,2561.22 1796.54,2561.88 1796.90,2563.33"/>
      </lanes>
   </edge>
   <edge id=":254506367_0" function="internal">
      <lanes>
         <lane id=":254506367_0_0" depart="0" maxspeed="13.89" length="4.82" shape="801.27,1763.74 800.07,1764.61 799.15,1764.71 798.52,1764.04 798.18,1762.59"/>
      </lanes>
   </edge>
   <edge id=":254506369_0" function="internal">
      <lanes>
         <lane id=":254506369_0_0" depart="0" maxspeed="27.78" length="0.22" shape="1263.71,523.79 1263.64,524.00"/>
      </lanes>
   </edge>
   <edge id=":254506369_1" function="internal">
      <lanes>
         <lane id=":254506369_1_0" depart="0" maxspeed="27.78" length="0.11" shape="1260.60,522.69 1260.56,522.79"/>
      </lanes>
   </edge>
   <edge id=":254506369_2" function="internal">
      <lanes>
         <lane id=":254506369_2_0" depart="0" maxspeed="27.78" length="4.82" shape="1260.60,522.69 1259.41,523.58 1258.49,523.69 1257.85,523.03 1257.49,521.58"/>
      </lanes>
   </edge>
   <edge id=":254506369_3" function="internal">
      <lanes>
         <lane id=":254506369_3_0" depart="0" maxspeed="27.78" length="0.11" shape="1254.38,520.48 1254.42,520.38"/>
      </lanes>
   </edge>
   <edge id=":254506369_4" function="internal">
      <lanes>
         <lane id=":254506369_4_0" depart="0" maxspeed="27.78" length="0.10" shape="1257.49,521.58 1257.49,521.58"/>
      </lanes>
   </edge>
   <edge id=":254506369_5" function="internal">
      <lanes>
         <lane id=":254506369_5_0" depart="0" maxspeed="27.78" length="4.82" shape="1257.49,521.58 1258.71,520.73 1259.63,520.65 1260.25,521.34 1260.56,522.79"/>
      </lanes>
   </edge>
   <edge id=":254506371_0" function="internal">
      <lanes>
         <lane id=":254506371_0_0" depart="0" maxspeed="25.00" length="5.00" shape="1334.09,343.20 1332.75,342.91 1331.64,343.12 1330.76,343.83 1330.12,345.04"/>
      </lanes>
   </edge>
   <edge id=":254506371_1" function="internal">
      <lanes>
         <lane id=":254506371_1_0" depart="0" maxspeed="22.22" length="16.15" shape="1335.24,340.10 1330.74,338.44 1327.66,337.31 1324.58,336.19 1320.08,334.56"/>
      </lanes>
   </edge>
   <edge id=":254506371_2" function="internal">
      <lanes>
         <lane id=":254506371_2_0" depart="0" maxspeed="25.00" length="3.16" shape="1335.24,340.10 1334.24,339.56"/>
      </lanes>
   </edge>
   <edge id=":254506371_18" function="internal">
      <lanes>
         <lane id=":254506371_18_0" depart="0" maxspeed="25.00" length="12.55" shape="1334.24,339.56 1331.46,338.06 1329.22,335.29 1328.54,331.80 1329.40,327.59"/>
      </lanes>
   </edge>
   <edge id=":254506371_3" function="internal">
      <lanes>
         <lane id=":254506371_3_0" depart="0" maxspeed="22.22" length="0.10" shape="1335.24,340.10 1334.42,338.98"/>
      </lanes>
   </edge>
   <edge id=":254506371_19" function="internal">
      <lanes>
         <lane id=":254506371_19_0" depart="0" maxspeed="22.22" length="4.72" shape="1334.42,338.98 1334.36,338.90 1334.26,337.98 1334.94,337.35 1336.38,337.01"/>
      </lanes>
   </edge>
   <edge id=":254506371_4" function="internal">
      <lanes>
         <lane id=":254506371_4_0" depart="0" maxspeed="25.00" length="5.15" shape="1335.61,329.82 1335.33,331.19 1335.56,332.34 1336.29,333.24 1337.53,333.91"/>
      </lanes>
   </edge>
   <edge id=":254506371_5" function="internal">
      <lanes>
         <lane id=":254506371_5_0" depart="0" maxspeed="27.78" length="16.19" shape="1335.61,329.82 1333.99,334.34 1332.88,337.43 1331.76,340.53 1330.12,345.04"/>
      </lanes>
   </edge>
   <edge id=":254506371_6" function="internal">
      <lanes>
         <lane id=":254506371_6_0" depart="0" maxspeed="27.78" length="16.17" shape="1332.50,328.70 1330.89,333.22 1329.78,336.31 1328.66,339.40 1327.02,343.91"/>
      </lanes>
   </edge>
   <edge id=":254506371_7" function="internal">
      <lanes>
         <lane id=":254506371_7_0" depart="0" maxspeed="25.00" length="8.86" shape="1332.50,328.70 1330.50,332.51 1325.28,335.24"/>
      </lanes>
   </edge>
   <edge id=":254506371_20" function="internal">
      <lanes>
         <lane id=":254506371_20_0" depart="0" maxspeed="25.00" length="6.83" shape="1325.28,335.24 1324.28,335.43 1320.08,334.56"/>
      </lanes>
   </edge>
   <edge id=":254506371_8" function="internal">
      <lanes>
         <lane id=":254506371_8_0" depart="0" maxspeed="27.78" length="0.10" shape="1332.50,328.70 1331.39,329.53"/>
      </lanes>
   </edge>
   <edge id=":254506371_21" function="internal">
      <lanes>
         <lane id=":254506371_21_0" depart="0" maxspeed="27.78" length="4.72" shape="1331.39,329.53 1331.31,329.59 1330.40,329.70 1329.76,329.04 1329.40,327.59"/>
      </lanes>
   </edge>
   <edge id=":254506371_9" function="internal">
      <lanes>
         <lane id=":254506371_9_0" depart="0" maxspeed="25.00" length="5.00" shape="1322.32,328.35 1323.67,328.63 1324.78,328.41 1325.65,327.70 1326.29,326.48"/>
      </lanes>
   </edge>
   <edge id=":254506371_10" function="internal">
      <lanes>
         <lane id=":254506371_10_0" depart="0" maxspeed="22.22" length="16.17" shape="1321.20,331.45 1325.71,333.09 1328.80,334.21 1331.88,335.35 1336.38,337.01"/>
      </lanes>
   </edge>
   <edge id=":254506371_11" function="internal">
      <lanes>
         <lane id=":254506371_11_0" depart="0" maxspeed="25.00" length="3.15" shape="1321.20,331.45 1322.21,331.99"/>
      </lanes>
   </edge>
   <edge id=":254506371_22" function="internal">
      <lanes>
         <lane id=":254506371_22_0" depart="0" maxspeed="25.00" length="12.54" shape="1322.21,331.99 1324.99,333.47 1327.23,336.22 1327.90,339.70 1327.02,343.91"/>
      </lanes>
   </edge>
   <edge id=":254506371_12" function="internal">
      <lanes>
         <lane id=":254506371_12_0" depart="0" maxspeed="22.22" length="0.10" shape="1321.20,331.45 1322.02,332.57"/>
      </lanes>
   </edge>
   <edge id=":254506371_23" function="internal">
      <lanes>
         <lane id=":254506371_23_0" depart="0" maxspeed="22.22" length="4.72" shape="1322.02,332.57 1322.08,332.65 1322.19,333.57 1321.52,334.20 1320.08,334.56"/>
      </lanes>
   </edge>
   <edge id=":254506371_13" function="internal">
      <lanes>
         <lane id=":254506371_13_0" depart="0" maxspeed="25.00" length="5.03" shape="1320.81,341.65 1321.10,340.30 1320.88,339.19 1320.17,338.31 1318.95,337.66"/>
      </lanes>
   </edge>
   <edge id=":254506371_14" function="internal">
      <lanes>
         <lane id=":254506371_14_0" depart="0" maxspeed="27.78" length="16.13" shape="1320.81,341.65 1322.45,337.15 1323.57,334.07 1324.68,330.99 1326.29,326.48"/>
      </lanes>
   </edge>
   <edge id=":254506371_15" function="internal">
      <lanes>
         <lane id=":254506371_15_0" depart="0" maxspeed="27.78" length="16.15" shape="1323.91,342.78 1325.56,338.28 1326.67,335.19 1327.78,332.11 1329.40,327.59"/>
      </lanes>
   </edge>
   <edge id=":254506371_16" function="internal">
      <lanes>
         <lane id=":254506371_16_0" depart="0" maxspeed="25.00" length="8.84" shape="1323.91,342.78 1325.94,338.99 1331.20,336.29"/>
      </lanes>
   </edge>
   <edge id=":254506371_24" function="internal">
      <lanes>
         <lane id=":254506371_24_0" depart="0" maxspeed="25.00" length="6.84" shape="1331.20,336.29 1332.18,336.10 1336.38,337.01"/>
      </lanes>
   </edge>
   <edge id=":254506371_17" function="internal">
      <lanes>
         <lane id=":254506371_17_0" depart="0" maxspeed="27.78" length="0.10" shape="1323.91,342.78 1325.03,341.96"/>
      </lanes>
   </edge>
   <edge id=":254506371_25" function="internal">
      <lanes>
         <lane id=":254506371_25_0" depart="0" maxspeed="27.78" length="4.72" shape="1325.03,341.96 1325.11,341.90 1326.03,341.80 1326.66,342.47 1327.02,343.91"/>
      </lanes>
   </edge>
   <edge id=":258961689_0" function="internal">
      <lanes>
         <lane id=":258961689_0_0" depart="0" maxspeed="20.83" length="5.00" shape="1138.16,868.02 1136.82,867.72 1135.71,867.93 1134.83,868.63 1134.17,869.84"/>
      </lanes>
   </edge>
   <edge id=":258961689_1" function="internal">
      <lanes>
         <lane id=":258961689_1_0" depart="0" maxspeed="13.89" length="16.10" shape="1138.16,868.02 1134.49,866.65 1130.62,865.20 1126.75,863.76 1123.07,862.40"/>
      </lanes>
   </edge>
   <edge id=":258961689_2" function="internal">
      <lanes>
         <lane id=":258961689_2_0" depart="0" maxspeed="20.83" length="3.12" shape="1138.16,868.02 1137.13,867.52"/>
      </lanes>
   </edge>
   <edge id=":258961689_18" function="internal">
      <lanes>
         <lane id=":258961689_18_0" depart="0" maxspeed="20.83" length="9.98" shape="1137.13,867.52 1134.32,866.16 1131.90,863.97 1130.90,861.47 1131.30,858.63"/>
      </lanes>
   </edge>
   <edge id=":258961689_3" function="internal">
      <lanes>
         <lane id=":258961689_3_0" depart="0" maxspeed="13.89" length="0.10" shape="1138.16,868.02 1137.35,866.89"/>
      </lanes>
   </edge>
   <edge id=":258961689_19" function="internal">
      <lanes>
         <lane id=":258961689_19_0" depart="0" maxspeed="13.89" length="4.72" shape="1137.35,866.89 1137.29,866.81 1137.19,865.89 1137.87,865.26 1139.32,864.92"/>
      </lanes>
   </edge>
   <edge id=":258961689_4" function="internal">
      <lanes>
         <lane id=":258961689_4_0" depart="0" maxspeed="20.83" length="5.00" shape="1137.49,860.93 1137.20,862.27 1137.40,863.38 1138.11,864.27 1139.32,864.92"/>
      </lanes>
   </edge>
   <edge id=":258961689_5" function="internal">
      <lanes>
         <lane id=":258961689_5_0" depart="0" maxspeed="27.78" length="9.50" shape="1137.49,860.93 1134.17,869.84"/>
      </lanes>
   </edge>
   <edge id=":258961689_6" function="internal">
      <lanes>
         <lane id=":258961689_6_0" depart="0" maxspeed="27.78" length="9.50" shape="1134.40,859.78 1131.08,868.69"/>
      </lanes>
   </edge>
   <edge id=":258961689_7" function="internal">
      <lanes>
         <lane id=":258961689_7_0" depart="0" maxspeed="20.83" length="6.51" shape="1134.40,859.78 1132.85,862.19 1128.13,863.48"/>
      </lanes>
   </edge>
   <edge id=":258961689_20" function="internal">
      <lanes>
         <lane id=":258961689_20_0" depart="0" maxspeed="20.83" length="6.58" shape="1128.13,863.48 1127.19,863.50 1123.07,862.40"/>
      </lanes>
   </edge>
   <edge id=":258961689_8" function="internal">
      <lanes>
         <lane id=":258961689_8_0" depart="0" maxspeed="27.78" length="0.10" shape="1134.40,859.78 1133.27,860.60"/>
      </lanes>