<?xml version="1.0"?>

<!-- generated on 03/24/11 10:11:18 by SUMO duarouter Version 0.12.2
<?xml version="1.0" encoding="iso-8859-1"?>

<configuration xmlns:xsi="http://www.w3.org/2001/XMLSchema-instance" xsi:noNamespaceSchemaLocation="http://sumo.sf.net/xsd/duarouterConfiguration.xsd">

    <input>
        <net-file value="london.net.xml"/>
        <trip-defs value="trips.trips.xml"/>
    </input>

    <output>
        <output-file value="london.rou.xml"/>
    </output>

</configuration>
-->

<routes>
    <vehicle id="t0" depart="0.00">
        <route edges="-27785509#8 -27785593#0 -24006308#6 -24006308#5 31294050#0 31294050#1 31294050#2 31294050#3 31294050#4 31294050#5 31294050#6 31294050#7 31294050#8 31294051#0 31294051#1 31294051#2 31294051#3 -27696193#4 31294043#1"/>
    </vehicle>
    <vehicle id="t1" depart="1.00">
        <route edges="31294051#1 -31294051#1 -31294051#0 -31294050#8 -26764285#8 -26764285#7 -26764285#6 -26764285#5 -26764285#4 -26764285#3 -26764285#2 -26764285#1 -8070572#8 -8070572#7"/>
    </vehicle>
    <vehicle id="t2" depart="2.00">
        <route edges="-27672335#6 24006308#1 -40070615#5 -40070615#4 -40070615#3 -40070615#2 -27785511#8 -27785511#7"/>
    </vehicle>
    <vehicle id="t3" depart="3.00">
        <route edges="-31294050#8 31294050#8 31294051#0 31294051#1 31294051#2 31294051#3 27696193#5 27696193#6 102843056 25840020 -23365098#7"/>
    </vehicle>
    <vehicle id="t4" depart="4.00">
        <route edges="-27695726#5 -34316281#2 -34316281#1 -34316281#0 -51189618 -23500854 -31293535#3 -27696193#5 -31294051#3 -31294051#2 -31294051#1 -31294051#0 -31294050#8 -31294050#7 -31294050#6 -31294050#5 -31294050#4 -31294050#3 -31294050#2 -31294050#1 -31294050#0 24006308#5 -24494011#2 -24494011#1 -24494011#0"/>
    </vehicle>
    <vehicle id="t5" depart="5.00">
        <route edges="-26764289#1 26764289#1 40070615#18 40070615#19 40070615#20 40070615#21 63013181#2 63013181#3 62094490 62094493#0 -31293535#1 -31293535#0"/>
    </vehicle>
    <vehicle id="t6" depart="6.00">
        <route edges="-27672323#0 26764287#1 26764287#2 26764287#3 26764287#4 26764287#5 27695531#0 27695531#1 63013181#0 -26774961#1 -26774961#0 26774961#0"/>
    </vehicle>
    <vehicle id="t7" depart="7.00">
        <route edges="-40070615#17 40070615#17 40070615#18 40070615#19 40070615#20 40070615#21 40070615#22 -102843056 -27696193#6 -27696193#5 -27696193#4 -27696193#3 -27696193#2 -27696193#1 -31294034#2 62094493#6 25840176#1 25840176#2 23913644#0 -26764293#6"/>
    </vehicle>
    <vehicle id="t8" depart="8.00">
        <route edges="-27672317#10 40070615#7 40070615#8 40070615#9 40070615#10 40070615#11 40070615#12 40070615#13 40070615#14 40070615#15 40070615#16 40070615#17 40070615#18 40070615#19 40070615#20 -27771927#1"/>
    </vehicle>
    <vehicle id="t9" depart="9.00">
        <route edges="-27785512#1 40070615#1 40070615#2 40070615#3 40070615#4 40070615#5 24006308#2 24006308#3 24006308#4 24006308#5 24006308#6 24006308#7 24006308#8 24006308#9 -25840176#16 -25840176#15 -25840176#14 -25840176#13 -25840176#12 -25840176#11 -25840176#10 -25840176#9 -25840176#8 -25840176#7 -25840176#6 -25840176#5 -25840176#4 -25840176#3 -25840176#2 31260319#0"/>
    </vehicle>
    <vehicle id="t10" depart="10.00">
        <route edges="24006308#0 -24006308#0 -26774961#16 -27672317#11"/>
    </vehicle>
    <vehicle id="t11" depart="11.00">
        <route edges="31294043#0 -27696193#3 -27696193#2 -27696193#1 -31294034#2 62094493#6 25840176#1 25840176#2 25840176#3 25840176#4 25840176#5 25840176#6 25840176#7 25840176#8 25840176#9 25840176#10 25840176#11 25840176#12 25840176#13 25840176#14 25840176#15 25840176#16 25840176#17 25840176#18 27785511#0"/>
    </vehicle>
    <vehicle id="t12" depart="12.00">
        <route edges="-26595224#2 -26595224#1 -26595224#0 -24494005#8 -24494005#7 -24494005#6 -24494005#5 24006308#8 24006308#9 -25840176#16 -25840176#15 27672316#0 -27672731"/>
    </vehicle>
    <vehicle id="t13" depart="13.00">
        <route edges="31260248 -23365098#4 -23365098#3 -23365098#2 -23365098#1 -23365098#0 -31293550#1 -31293550#0 27771071#1 27771071#2 25840173 25840176#0 25840176#1 25840176#2 23913644#0 23913644#1 -27674039#2"/>
    </vehicle>
    <vehicle id="t14" depart="14.00">
        <route edges="-26764286#1 -26764286#0 -25840176#11 -25840176#10 -25840176#9 26764298 -26764293#2"/>
    </vehicle>
    <vehicle id="t15" depart="15.00">
        <route edges="-24494010#6 -24494010#5 -24494010#4 -24494010#3 -24494010#2 -24494010#1 -24494010#0 26445198#4"/>
    </vehicle>
    <vehicle id="t16" depart="16.00">
        <route edges="-26774961#9 27672323#1 40070615#14 40070615#15 40070615#16 40070615#17 40070615#18 40070615#19 40070615#20 40070615#21 40070615#22 -102843056 -27696193#6 31293535#3 23500854 51189618 34316281#0 -23365098#5 -23365098#4 -23365098#3 -23365098#2 -23365098#1 -23365098#0"/>
    </vehicle>
    <vehicle id="t17" depart="17.00">
        <route edges="8070572#9 26445198#1 26445198#2 26445198#3 26445198#4 26445198#5 26445198#6 26445198#7 -31294050#8 -31294050#7 -31294050#6 26764286#6 26764286#7 -40070615#12 -40070615#11 -40070615#10"/>
    </vehicle>
    <vehicle id="t18" depart="18.00">
        <route edges="-102843056 102843056 25840020 23365098#8 23365098#9"/>
    </vehicle>
    <vehicle id="t19" depart="19.00">
        <route edges="-31293536#1 -31293536#0 26764286#7 40070615#13 40070615#14 40070615#15 40070615#16 40070615#17 40070615#18 40070615#19 40070615#20 40070615#21 40070615#22 102843057#0 102843057#1 102843057#2 -24498394#0"/>
    </vehicle>
    <vehicle id="t20" depart="20.00">
        <route edges="-8070572#10 26445198#1 26445198#2 27672333 26764285#3 24494005#0 24494005#1 24494005#2 24494005#3 24494005#4 -24006308#7 -24006308#6 -24006308#5 -24006308#4 -24006308#3 -24006308#2 -40070615#5 -40070615#4 -40070615#3 -40070615#2 -40070615#1 27785512#1 -27672902#5"/>
    </vehicle>
    <vehicle id="t21" depart="21.00">
        <route edges="26764293#4 26445197 -25840176#4 -25840176#3 -27771927#9 31294034#1 31294034#2 27696193#1 27696193#2 27696193#3 27696193#4 27696193#5 27696193#6 102843056 25840020 -23365098#7"/>
    </vehicle>
    <vehicle id="t22" depart="22.00">
        <route edges="-25840176#2 25840176#2 -27771927#9 -27771927#8 -27771927#7 -27771927#6 31294045#8 31294043#0"/>
    </vehicle>
    <vehicle id="t23" depart="23.00">
        <route edges="27672317#10 -27672335#6 24006308#1 24006308#2 24006308#3 24006308#4 31294050#0 31294050#1 31294050#2 -31294050#2"/>
    </vehicle>
    <vehicle id="t24" depart="24.00">
        <route edges="-27672317#9 -27672317#8 31294050#1 31294050#2 31294050#3 31294050#4 31294050#5 31294050#6 31294050#7 31294050#8 31294051#0 31294051#1 31294051#2 31294051#3 -27696193#4 -27696193#3 -27696193#2 -24494010#3"/>
    </vehicle>
    <vehicle id="t25" depart="25.00">
        <route edges="-23913644#0 25840176#3 25840176#4 25840176#5 25840176#6 25840176#7 25840176#8 25840176#9 25840176#10 25840176#11 26764286#0 26764286#1 26764286#2 26764286#3 26764286#4 26764286#5 -31294050#5"/>
    </vehicle>
    <vehicle id="t26" depart="26.00">
        <route edges="26445203#10 -40070615#18 -40070615#17 -40070615#16 -40070615#15 -40070615#14 -40070615#13 -40070615#12 -40070615#11 -40070615#10 -40070615#9 -40070615#8 -40070615#7 -40070615#6 24006308#2 24006308#3 24006308#4 24006308#5 24006308#6 24006308#7 24494005#5 24494005#6 24494005#7 -24494005#7"/>
    </vehicle>
    <vehicle id="t27" depart="27.00">
        <route edges="-27672902#0 27672902#0 27672317#9 40070615#7 40070615#8 40070615#9 40070615#10 40070615#11 40070615#12 40070615#13 40070615#14 40070615#15 40070615#16 -31294049#3 -31294049#2"/>
    </vehicle>
    <vehicle id="t28" depart="28.00">
        <route edges="25840176#15 25840176#16 -24006308#9 -24006308#8 -24006308#7 -24006308#6 -24006308#5 -24006308#4 -24006308#3 -24006308#2 40070615#6 40070615#7 40070615#8 -40070615#8"/>
    </vehicle>
    <vehicle id="t29" depart="29.00">
        <route edges="24006308#9 41231929 -41231929"/>
    </vehicle>
    <vehicle id="t30" depart="30.00">
        <route edges="23365098#7 -25840020 -102843056 -27696193#6 -27696193#5 -31294051#3 -31294051#2"/>
    </vehicle>
    <vehicle id="t31" depart="31.00">
        <route edges="-27672317#11 -27672317#10 40070615#7 40070615#8 40070615#9 40070615#10 40070615#11 40070615#12 40070615#13 40070615#14 40070615#15 40070615#16 40070615#17 40070615#18 40070615#19 40070615#20 40070615#21 40070615#22 -102843056 -27696193#6 -27696193#5 -27696193#4 31294043#1 60857774#2 60857774#3"/>
    </vehicle>
    <vehicle id="t32" depart="32.00">
        <route edges="-31294050#6 31294050#6 31294050#7 31294050#8 31294051#0 31294051#1 31294051#2 31294051#3 -27696193#4 -27696193#3 -27696193#2 24494010#4 24494010#5 27695732#1 -31293550#1"/>
    </vehicle>
    <vehicle id="t33" depart="33.00">
        <route edges="40070615#12 -40070615#12 -40070615#11 -40070615#10 -40070615#9 -40070615#8 -27672319#1 27672319#1"/>
    </vehicle>
    <vehicle id="t34" depart="34.00">
        <route edges="-31293550#0 31293550#0 31293550#1 23365098#0 23365098#1 23365098#2 23365098#3 23365098#4 23365098#5 23365098#6 23365098#7 23365098#8 23365098#9 -24498394#2 24498394#2"/>
    </vehicle>
    <vehicle id="t35" depart="35.00">
        <route edges="-31294049#3 31294049#3 -40070615#16 -40070615#15 -40070615#14 -40070615#13 -40070615#12 -40070615#11 -40070615#10 -40070615#9 -40070615#8 -40070615#7 -40070615#6 -40070615#5 -40070615#4"/>
    </vehicle>
    <vehicle id="t36" depart="36.00">
        <route edges="-27695725#5 -27695731#1 23365098#2 23365098#3 23365098#4 23365098#5 34316281#1 34316281#2 -34316281#2"/>
    </vehicle>
    <vehicle id="t37" depart="37.00">
        <route edges="27672731 -27672316#0 25840176#15 25840176#16 -24006308#9 -24006308#8 -24006308#7 -24006308#6 -24006308#5 31294050#0 31294050#1 31294050#2 31294050#3 -27672720#0"/>
    </vehicle>
    <vehicle id="t38" depart="38.00">
        <route edges="26445203#12 27695546 -26764287#4 26764289#0 26764289#1 -40070615#17 -31294049#3 -31294049#2 -31294049#1 -31294049#0 -31294050#8 -26764285#8 31294045#5"/>
    </vehicle>
    <vehicle id="t39" depart="39.00">
        <route edges="31294050#5 -31294050#5 -31294050#4 -31294050#3 -31294050#2 -31294050#1 -31294050#0 -24006308#4 -27785592#1 27785592#1"/>
    </vehicle>
    <vehicle id="t40" depart="40.00">
        <route edges="25840176#4 25840176#5 25840176#6 25840176#7 25840176#8 25840176#9 25840176#10 25840176#11 25840176#12 25840176#13 -27672720#6 -27672720#5 -8070572#5 -27672722"/>
    </vehicle>
    <vehicle id="t41" depart="41.00">
        <route edges="-26774961#11 27672322#1 27672322#2 40070615#12 40070615#13 40070615#14 40070615#15 40070615#16 40070615#17 40070615#18 40070615#19 40070615#20 40070615#21 40070615#22 25840020 -23365098#7 27695727#1 27695725#0"/>
    </vehicle>
    <vehicle id="t42" depart="42.00">
        <route edges="27672335#1 27672335#2 27672335#3 27672335#4 27672335#5 24006308#1 24006308#2 24006308#3 24006308#4 24006308#5 24006308#6 24006308#7 24006308#8 -8070572#2 -27785509#9"/>
    </vehicle>
    <vehicle id="t43" depart="43.00">
        <route edges="25840176#17 -25840176#17 -24006308#9 -24006308#8 -24006308#7 -24006308#6 -24006308#5 31294050#0 31294050#1 31294050#2 31294050#3 31294050#4 31294050#5 31294050#6 31294050#7 31294050#8 31294049#0 -31259124"/>
    </vehicle>
    <vehicle id="t44" depart="44.00">
        <route edges="-27672319#0 27672319#0 -27672335#9 -27672335#8 -27672335#7 -27672335#6 24006308#1 24006308#2 24006308#3 24006308#4 24006308#5 24006308#6 24006308#7 24006308#8 24006308#9 -25840176#16 -25840176#15 -25840176#14 -25840176#13 -25840176#12 -25840176#11 -25840176#10 -25840176#9 -25840176#8 -25840176#7 -25840176#6 -25840176#5 -25840176#4 -25840176#3 23913644#0 23913644#1 -23913644#1"/>
    </vehicle>
    <vehicle id="t45" depart="45.00">
        <route edges="40070615#12 -40070615#12 -40070615#11 -40070615#10 -40070615#9 -40070615#8 -40070615#7 -40070615#6 24006308#2 24006308#3 24006308#4 24006308#5 24006308#6 24006308#7 24006308#8 24006308#9 -25840176#16 -25840176#15 -25840176#14 -25840176#13 -25840176#12 -25840176#11 26764297#0 26764293#1 26764299"/>
    </vehicle>
    <vehicle id="t46" depart="46.00">
        <route edges="31294043#0 27696193#4 27696193#5 27696193#6 102843056 -40070615#22 -40070615#21 -40070615#20 -40070615#19 -40070615#18 -40070615#17 -40070615#16 -40070615#15 -40070615#14 -40070615#13 -40070615#12 -40070615#11 -40070615#10 -40070615#9"/>
    </vehicle>
    <vehicle id="t47" depart="47.00">
        <route edges="25840176#17 -27785509#10 -27785509#9 27785509#9"/>
    </vehicle>
    <vehicle id="t48" depart="48.00">
        <route edges="26764285#8 31294050#8 31294051#0 31294051#1 31294051#2 31294051#3 27696193#5 31293535#3 23500854 51189618 34316281#0 34316281#1 -27695725#0 27695727#2"/>
    </vehicle>
    <vehicle id="t49" depart="49.00">
        <route edges="27695721#0 27695721#1 27696193#3 27696193#4 27696193#5 27696193#6 102843056 -40070615#22 -40070615#21 -40070615#20 -40070615#19 -40070615#18 -40070615#17 -40070615#16 -40070615#15 31241609"/>
    </vehicle>
    <vehicle id="t50" depart="50.00">
        <route edges="-31294035#3 31293550#1 23365098#0 23365098#1 23365098#2 23365098#3 23365098#4 23365098#5 -34316281#0 -51189618 -23500854 -31293535#3 27696193#6 102843056 -40070615#22 -40070615#21 -40070615#20 -40070615#19 -40070615#18 -26764289#1 -26764289#0 26764289#0"/>
    </vehicle>
    <vehicle id="t51" depart="51.00">
        <route edges="31294049#2 31294049#3 -40070615#16 -40070615#15 -40070615#14 -40070615#13 -40070615#12 -40070615#11 -40070615#10 -40070615#9 -40070615#8 -40070615#7 -40070615#6 24006308#2 24006308#3 24006308#4 24006308#5 -24006308#5"/>
    </vehicle>
    <vehicle id="t52" depart="52.00">
        <route edges="27695722#2 -24498394#1 -102843057#2 -102843057#1 -102843057#0 -40070615#22 -40070615#21 -40070615#20 -40070615#19 -40070615#18 -40070615#17 -40070615#16 -40070615#15 -40070615#14 -40070615#13 -40070615#12 -40070615#11 -40070615#10 -40070615#9 40070615#9"/>
    </vehicle>
    <vehicle id="t53" depart="53.00">
        <route edges="-27695726#1 -31294035#4 -31294035#3 31293550#1 -27695732#1 -24494010#5 -24494010#4 27696193#2 27696193#3 27696193#4 -31294051#3 -31294051#2 -31294051#1 26445203#7 31259124"/>
    </vehicle>
    <vehicle id="t54" depart="54.00">
        <route edges="26764285#6 26764285#7 26764285#8 -31294050#7 -31294050#6 -31294050#5 -31294050#4 -31294050#3 -31294050#2 -31294050#1 -31294050#0 -24006308#4 -24006308#3 -24006308#2 -40070615#5 -40070615#4"/>
    </vehicle>
    <vehicle id="t55" depart="55.00">
        <route edges="51189618 -51189618 -23500854 -31293535#3 -27696193#5 -27696193#4 -27696193#3 -27696193#2 -27696193#1 -31294034#2 62094493#6 25840176#1 25840176#2 25840176#3 25840176#4 25840176#5 25840176#6 25840176#7 25840176#8 25840176#9 25840176#10 25840176#11 25840176#12 26764296#0 26764296#1 -26764296#1"/>
    </vehicle>
    <vehicle id="t56" depart="56.00">
        <route edges="26764293#3 26764292#1 25840176#7 25840176#8 25840176#9 -31259294 -8070572#7"/>
    </vehicle>
    <vehicle id="t57" depart="57.00">
        <route edges="-26764287#0 26764287#0 27672323#0 27672323#1 40070615#14 40070615#15 40070615#16 40070615#17 40070615#18 40070615#19 40070615#20 40070615#21 40070615#22 -102843056 26596251#0"/>
    </vehicle>
    <vehicle id="t58" depart="58.00">
        <route edges="31274215 62094493#8 -27674039#0 27696193#0 27696193#1 27696193#2 27696193#3 27696193#4 27696193#5 31293535#3 23500854 51189618 34316281#0 34316281#1 27695725#1 31260248"/>
    </vehicle>
    <vehicle id="t59" depart="59.00">
        <route edges="-25840176#0 25840176#0 25840176#1 25840176#2 -27771927#9 31294034#1 62094493#6"/>
    </vehicle>
    <vehicle id="t60" depart="60.00">
        <route edges="26445203#13 -26764287#5 -26764287#4 26764289#0 26764289#1 -40070615#17 -40070615#16 -40070615#15 -40070615#14 -40070615#13 -40070615#12 -40070615#11 -40070615#10 -40070615#9 -40070615#8 -40070615#7 -40070615#6 24006308#2 24006308#3 24006308#4 24006308#5 31294045#0 31294045#1 -27672724"/>
    </vehicle>
    <vehicle id="t61" depart="61.00">
        <route edges="27672328 26764286#4 26764286#5 31294050#6 31294050#7 31294050#8 31294051#0 31294051#1"/>
    </vehicle>
    <vehicle id="t62" depart="62.00">
        <route edges="-27672335#4 27672335#4 27672335#5 24006308#1 40070615#6 40070615#7 40070615#8 40070615#9 40070615#10 40070615#11 40070615#12 40070615#13 40070615#14 40070615#15 40070615#16 40070615#17 40070615#18 40070615#19 40070615#20 40070615#21 40070615#22 -102843056 -27696193#6 -27696193#5 -27696193#4 31294043#1 60857774#2 60857774#3 27695732#0"/>
    </vehicle>
    <vehicle id="t63" depart="63.00">
        <route edges="-27695726#3 -31294044 -31294043#3 -31294043#2 -31294043#1 27696193#4 -31294051#3 -31294051#2 -31294051#1 -31294051#0 -31294050#8 -31294050#7 31294050#7"/>
    </vehicle>
    <vehicle id="t64" depart="64.00">
        <route edges="40070615#8 -40070615#8 -40070615#7 -40070615#6 24006308#2 24006308#3 24006308#4 24006308#5 24006308#6 24006308#7 24006308#8 24006308#9 -25840176#16 -25840176#15 -25840176#14 -25840176#13 -25840176#12 26764286#0"/>
    </vehicle>
    <vehicle id="t65" depart="65.00">
        <route edges="26764286#6 -26764286#6 31294050#6 31294050#7 31294050#8 -26445198#7 -26445198#6 -26445198#5 -26445198#4 -26445198#3 -26445198#2 -26445198#1 8070572#10 -8070572#10"/>
    </vehicle>
    <vehicle id="t66" depart="66.00">
        <route edges="-27672323#1 27672323#1 40070615#14 40070615#15 40070615#16 40070615#17 40070615#18 40070615#19 40070615#20 40070615#21 40070615#22 -102843056 -27696193#6 31293535#3 23500854 51189618 34316281#0 -23365098#5 -23365098#4 -27695730#1"/>
    </vehicle>
    <vehicle id="t67" depart="67.00">
        <route edges="-27672720#5 -27672720#4 -27672720#3 24494005#2 24494005#3 24494005#4 -24006308#7 -24006308#6 -24006308#5 -24006308#4 -24006308#3 -24006308#2 40070615#6 40070615#7 40070615#8 40070615#9 40070615#10 40070615#11 40070615#12 40070615#13 40070615#14 40070615#15 40070615#16 40070615#17 40070615#18 40070615#19 40070615#20 40070615#21 40070615#22 102843057#0 102843057#1 102843057#2 24498394#1 -27695722#2"/>
    </vehicle>
    <vehicle id="t68" depart="68.00">
        <route edges="-27674041 27674041 -23913644#2 -27674039#2 -27674039#1 -27674039#0 27696193#0 27696193#1 27696193#2 27696193#3 27696193#4 27696193#5 31293535#3 23500854"/>
    </vehicle>
    <vehicle id="t69" depart="69.00">
        <route edges="31294045#3 26764286#5 -31294050#5 -31294050#4 -31294050#3 -31294050#2 27672901"/>
    </vehicle>
    <vehicle id="t70" depart="70.00">
        <route edges="-26764287#0 26764287#0 27672323#0 27672323#1 -40070615#13 -40070615#12 -40070615#11 -40070615#10 -40070615#9 -40070615#8 -40070615#7 -40070615#6 24006308#2 24006308#3 24006308#4 24006308#5 24006308#6 24006308#7 24006308#8 24006308#9 -25840176#16 -25840176#15 -25840176#14 -25840176#13 -25840176#12 -25840176#11"/>
    </vehicle>
    <vehicle id="t71" depart="71.00">
        <route edges="-23365098#7 23365098#7 -25840020 -40070615#22 -40070615#21 -40070615#20 -40070615#19 -40070615#18 -40070615#17 -40070615#16"/>
    </vehicle>
    <vehicle id="t72" depart="72.00">
        <route edges="26596251#2 -26596251#2 -26596251#1 63013181#3 62094490 62094493#0 31293535#2 31293535#3 23500854 -23500854"/>
    </vehicle>
    <vehicle id="t73" depart="73.00">
        <route edges="-27672731 27672317#1 -25840176#15 -25840176#14 -25840176#13 -25840176#12 -25840176#11 -25840176#10 -25840176#9 -25840176#8 -25840176#7 -25840176#6 -25840176#5 -25840176#4 26445203#2"/>
    </vehicle>
    <vehicle id="t74" depart="74.00">
        <route edges="-23365098#7 -23365098#6 -34316281#0 -51189618 -23500854 -31293535#3 -27696193#5 27696193#5"/>
    </vehicle>
    <vehicle id="t75" depart="75.00">
        <route edges="27785526 27785509#3 27672902#4 -27785511#7 -27785511#6 -27785511#5 -27785511#4 -27785511#3 27785511#3"/>
    </vehicle>
    <vehicle id="t76" depart="76.00">
        <route edges="27785591 27785511#5 26596261#1 26596261#2 31294050#0 31294050#1 31294050#2 31294050#3 31294050#4 31294050#5 31294050#6 31294050#7 31294050#8 31294051#0 31294051#1 31294051#2 31294051#3 27696193#5 31293535#3 23500854 51189618 34316281#0 34316281#1 34316281#2"/>
    </vehicle>
    <vehicle id="t77" depart="77.00">
        <route edges="31294043#2 23365098#3 23365098#4 23365098#5 -23365098#5"/>
    </vehicle>
    <vehicle id="t78" depart="78.00">
        <route edges="24494011#0 24494011#1 24494011#2 -24006308#5 -24006308#4 -24006308#3 -24006308#2 40070615#6 40070615#7 40070615#8 40070615#9 40070615#10 40070615#11 -27672322#2 -27672322#1 -26774961#10 -26774961#9"/>
    </vehicle>
    <vehicle id="t79" depart="79.00">
        <route edges="-27695732#1 24494010#6 23365098#1 23365098#2 23365098#3 23365098#4 23365098#5 34316281#1 27695725#1"/>
    </vehicle>
    <vehicle id="t80" depart="80.00">
        <route edges="-23500854 -31293535#3 -27696193#5 -27696193#4 -27696193#3 -27696193#2 -27696193#1 -31294034#2 62094493#6 25840176#1 25840176#2 25840176#3 25840176#4 25840176#5 25840176#6 25840176#7 25840176#8 25840176#9 25840176#10 25840176#11 25840176#12 25840176#13 25840176#14 25840176#15 -27672317#1 27672317#1"/>
    </vehicle>
    <vehicle id="t81" depart="81.00">
        <route edges="27695722#1 -27695534#1 -102843057#1 26774961#1 26774961#2 -27771927#0 27771927#0"/>
    </vehicle>
    <vehicle id="t82" depart="82.00">
        <route edges="23500854 -23500854 -31293535#3 27696193#6 102843056 -40070615#22 -40070615#21 -40070615#20 -40070615#19 -40070615#18 -40070615#17 -40070615#16 -40070615#15 -40070615#14 -27672323#1 -27672323#0 -26764287#0"/>
    </vehicle>
    <vehicle id="t83" depart="83.00">
        <route edges="25840176#13 -25840176#13 -25840176#12 -25840176#11 -25840176#10 -25840176#9 -25840176#8 -25840176#7 -25840176#6 -25840176#5 -25840176#4 -25840176#3 -25840176#2 -25840176#1 -25840176#0 -25840173 -27771071#2 -27771071#1 31293550#0 31293550#1 23365098#0 23365098#1 23365098#2 23365098#3 -23365098#3"/>
    </vehicle>
    <vehicle id="t84" depart="84.00">
        <route edges="-40070615#8 40070615#8 40070615#9 40070615#10 40070615#11 40070615#12 40070615#13 40070615#14 40070615#15 40070615#16 40070615#17 40070615#18 40070615#19 40070615#20 40070615#21 40070615#22 -102843056 -27696193#6 31293535#3 23500854 51189618 34316281#0 -23365098#5 -23365098#4 -23365098#3 -23365098#2 -23365098#1 -23365098#0 -31293550#1 31294035#3"/>
    </vehicle>
    <vehicle id="t85" depart="85.00">
        <route edges="-27695726#5 -34316281#2 -34316281#1 -34316281#0 -51189618 -23500854 -31293535#3 -27696193#5 -27696193#4 -27696193#3 -27696193#2 -27696193#1 -31294034#2 62094493#6 25840176#1 25840176#2 25840176#3 25840176#4 25840176#5 25840176#6 25840176#7 25840176#8 25840176#9 25840176#10 25840176#11 25840176#12 25840176#13 25840176#14 27672316#0 27672316#1 -27672316#1"/>
    </vehicle>
    <vehicle id="t86" depart="86.00">
        <route edges="-27672720#4 -27672720#3 24494005#2 24494005#3 24494005#4 -24006308#7 -24006308#6 -24006308#5 -26596261#2 -26596261#1"/>
    </vehicle>
    <vehicle id="t87" depart="87.00">
        <route edges="8070572#10 31294034#0 31294034#1 31294034#2 27696193#1 27696193#2 27696193#3 27696193#4 27696193#5 27696193#6 102843056 25840020 23365098#8"/>
    </vehicle>
    <vehicle id="t88" depart="88.00">
        <route edges="-27672317#11 -27672317#10 40070615#7 40070615#8"/>
    </vehicle>
    <vehicle id="t89" depart="89.00">
        <route edges="-25840176#17 -25840176#16 -25840176#15 -25840176#14 -25840176#13 -25840176#12 -25840176#11 -25840176#10 -25840176#9 -25840176#8 -25840176#7 -25840176#6 26445198#0 -8070572#9"/>
    </vehicle>
    <vehicle id="t90" depart="90.00">
        <route edges="27672316#0 -27672316#0 -25840176#14 -25840176#13 -25840176#12 -25840176#11 -25840176#10 -25840176#9 -25840176#8 -25840176#7 -25840176#6 -25840176#5 -25840176#4 -25840176#3 -27771927#9 31294034#1 31294034#2 27696193#1 27696193#2 27696193#3 27696193#4 27696193#5 -31293535#2"/>
    </vehicle>
    <vehicle id="t91" depart="91.00">
        <route edges="26445203#2 31294034#0 31294034#1 31294034#2 27696193#1 27696193#2 27696193#3 27696193#4 27696193#5 27696193#6 102843056 -40070615#22"/>
    </vehicle>
    <vehicle id="t92" depart="92.00">
        <route edges="31241609 -31241609 40070615#15 40070615#16 40070615#17 40070615#18 40070615#19 40070615#20 40070615#21 40070615#22 -102843056 -27696193#6 31293535#3 23500854 51189618 34316281#0 -23365098#5 -23365098#4 27695730#2 -27695730#2"/>
    </vehicle>
    <vehicle id="t93" depart="93.00">
        <route edges="27695721#1 -27696193#2 -27696193#1 -27696193#0 27674039#0 27674039#1 27674039#2 23913644#2 23913644#3"/>
    </vehicle>
    <vehicle id="t94" depart="94.00">
        <route edges="31260248 -23365098#4 -23365098#3 -23365098#2 -23365098#1 -23365098#0 -31293550#1 -31293550#0 27771071#1 27771071#2 25840173 25840176#0 25840176#1 25840176#2 23913644#0 -26764293#6 26445203#1"/>
    </vehicle>
    <vehicle id="t95" depart="95.00">
        <route edges="27695733#1 -27771071#1 31293550#0 31293550#1 23365098#0 23365098#1 23365098#2 23365098#3 23365098#4 23365098#5 -34316281#0 -51189618 -23500854 -31293535#3 27696193#6 102843056 -40070615#22 -40070615#21 -40070615#20 -40070615#19 26445203#11 26445203#12"/>
    </vehicle>
    <vehicle id="t96" depart="96.00">
        <route edges="24494010#8 -27695726#1 -27695726#0 27771071#0 27771071#1 27771071#2 25840173 25840176#0 25840176#1 25840176#2 25840176#3 25840176#4 25840176#5 25840176#6 25840176#7 25840176#8 25840176#9"/>
    </vehicle>
    <vehicle id="t97" depart="97.00">
        <route edges="-31294051#2 31294051#2 31294051#3 27696193#5 27696193#6 102843056 102843057#0 102843057#1 102843057#2 24498394#1 -24498394#1"/>
    </vehicle>
    <vehicle id="t98" depart="98.00">
        <route edges="27672317#8 27672902#1 24006308#3 24006308#4 24006308#5 24006308#6 24006308#7 24006308#8 24006308#9 -25840176#16 -25840176#15 -25840176#14 -25840176#13 -25840176#12 -25840176#11 -25840176#10 -25840176#9 -25840176#8 -25840176#7 -25840176#6 -25840176#5 -25840176#4 -25840176#3 -25840176#2 -25840176#1 -25840176#0 -25840173 25840173"/>
    </vehicle>
    <vehicle id="t99" depart="99.00">
        <route edges="-25840176#13 25840176#13 25840176#14 25840176#15 25840176#16 -24006308#9 -24006308#8 -24006308#7 -24006308#6 -24006308#5 -24006308#4 -24006308#3 -24006308#2 40070615#6 40070615#7 40070615#8 40070615#9 40070615#10 40070615#11 40070615#12 40070615#13 -40070615#13"/>
    </vehicle>
    <vehicle id="t100" depart="100.00">
        <route edges="-25840176#17 -24006308#9 24006308#9"/>
    </vehicle>
    <vehicle id="t101" depart="101.00">
        <route edges="27695727#0 23365098#7 -25840020 -40070615#22 -40070615#21 -40070615#20 -40070615#19 -40070615#18 -40070615#17 -40070615#16 -40070615#15 -40070615#14 -40070615#13 -40070615#12 -40070615#11 -40070615#10 -40070615#9 -40070615#8 -40070615#7 -40070615#6 24006308#2 24006308#3 24006308#4 24006308#5 24006308#6 24006308#7 24006308#8 -8070572#2 8070572#2"/>
    </vehicle>
    <vehicle id="t102" depart="102.00">
        <route edges="-40070615#15 -40070615#14 -40070615#13 -40070615#12 -40070615#11 -40070615#10 -40070615#9 -40070615#8 -40070615#7 -40070615#6 -40070615#5 -40070615#4 -40070615#3 -40070615#2 -40070615#1 -40070615#0 -26595224#4"/>
    </vehicle>
    <vehicle id="t103" depart="103.00">
        <route edges="-26445198#6 -26445198#5 -26445198#4 -26445198#3 -26445198#2 -26445198#1 -26445198#0 -25840176#5 -25840176#4"/>
    </vehicle>
    <vehicle id="t104" depart="104.00">
        <route edges="-8070572#8 -8070572#7 26764286#1 26764286#2 24494005#1 24494005#2 24494005#3 24494005#4 24494005#5 24494005#6 24494005#7 24494005#8 26595224#0 26595224#1 26595224#2"/>
    </vehicle>
    <vehicle id="t105" depart="105.00">
        <route edges="23913644#2 -23913644#2 -23913644#1 -23913644#0 25840176#3 25840176#4 25840176#5 25840176#6 25840176#7 25840176#8 25840176#9 25840176#10 25840176#11 26764286#0 26764286#1 26764286#2 26764286#3 26764286#4 26764286#5 -31294050#5 31294050#5"/>
    </vehicle>
    <vehicle id="t106" depart="106.00">
        <route edges="23365098#2 23365098#3 23365098#4 23365098#5 -34316281#0 -51189618 -23500854 -31293535#3 27696193#6 102843056 -40070615#22 -40070615#21 -40070615#20 -40070615#19 -40070615#18 -40070615#17 -40070615#16 -40070615#15 -40070615#14 -40070615#13 -40070615#12 -40070615#11 40070615#11"/>
    </vehicle>
    <vehicle id="t107" depart="107.00">
        <route edges="40070615#1 40070615#2 40070615#3 40070615#4 40070615#5 40070615#6 40070615#7 40070615#8 40070615#9 40070615#10 40070615#11 40070615#12 40070615#13 40070615#14 40070615#15 40070615#16 40070615#17 -26764289#1 -26764289#0 -26764287#3"/>
    </vehicle>
    <vehicle id="t108" depart="108.00">
        <route edges="27771071#2 25840173 25840176#0 25840176#1 25840176#2 25840176#3 25840176#4 25840176#5 26445198#0 26445198#1 26445198#2 26445198#3 26445198#4"/>
    </vehicle>
    <vehicle id="t109" depart="109.00">
        <route edges="31294045#1 -31294045#1 -31294045#0 -24006308#5 -24006308#4 -24006308#3 -24006308#2 40070615#6 40070615#7 40070615#8 40070615#9 40070615#10 40070615#11 40070615#12 40070615#13 40070615#14 40070615#15 40070615#16 40070615#17 -26764289#1 -26764289#0 26764287#4"/>
    </vehicle>
    <vehicle id="t110" depart="110.00">
        <route edges="-31294043#0 -31294045#8 -27771927#5 -31294051#1 -31294051#0 -31294050#8 -31294050#7 -31294050#6 -31294050#5 -31294050#4 -31294050#3 -31294050#2 -31294050#1 -31294050#0 -24006308#4"/>
    </vehicle>
    <vehicle id="t111" depart="111.00">
        <route edges="62094493#9 27674041 -23913644#2 -27674039#2 -27674039#1 -27674039#0 27696193#0 27696193#1 27696193#2 27696193#3 -31294043#0"/>
    </vehicle>