<?xml version="1.0"?>

<!-- generated on 03/24/11 09:51:05 by SUMO netconvert Version 0.12.2
<?xml version="1.0" encoding="iso-8859-1"?>

<configuration xmlns:xsi="http://www.w3.org/2001/XMLSchema-instance" xsi:noNamespaceSchemaLocation="http://sumo.sf.net/xsd/netconvertConfiguration.xsd">

    <input>
        <osm-files value="london.osm"/>
    </input>

    <output>
        <output-file value="london.net.xml"/>
    </output>

    <projection>
        <proj.utm value="true"/>
    </projection>

    <tls_building>
        <try-join-tls value="true"/>
    </tls_building>

</configuration>
-->

<net>

   <location netOffset="-478926.02,-4758306.50" convBoundary="0.00,0.00,2635.90,3050.18" origBoundary="-81.258535,42.977153,-81.226170,43.004616" projParameter="+proj=utm +zone=17 +ellps=WGS84 +datum=WGS84 +units=m +no_defs"/>

   <edge id=":252527989_0" function="internal">
      <lanes>
         <lane id=":252527989_0_0" depart="0" maxspeed="22.22" length="4.82" shape="354.08,15.00 352.92,14.06 352.58,13.21 353.07,12.42 354.38,11.71"/>
      </lanes>
   </edge>
   <edge id=":252528002_0" function="internal">
      <lanes>
         <lane id=":252528002_0_0" depart="0" maxspeed="13.89" length="43.34" shape="2068.17,630.41 2060.17,628.74 2046.76,626.95 2033.29,625.71 2025.17,625.70"/>
      </lanes>
   </edge>
   <edge id=":252528002_1" function="internal">
      <lanes>
         <lane id=":252528002_1_0" depart="0" maxspeed="18.06" length="45.26" shape="2068.17,630.41 2060.86,627.75 2048.62,623.44 2035.48,618.86 2025.48,615.38"/>
      </lanes>
   </edge>
   <edge id=":252528002_2" function="internal">
      <lanes>
         <lane id=":252528002_2_0" depart="0" maxspeed="18.06" length="32.87" shape="2068.17,630.41 2057.76,625.38 2054.57,621.47 2058.60,618.67 2069.84,617.00"/>
      </lanes>
   </edge>
   <edge id=":252528002_3" function="internal">
      <lanes>
         <lane id=":252528002_3_0" depart="0" maxspeed="13.89" length="4.82" shape="2068.17,630.41 2067.32,629.19 2067.24,628.27 2067.93,627.66 2069.39,627.35"/>
      </lanes>
   </edge>
   <edge id=":252528002_4" function="internal">
      <lanes>
         <lane id=":252528002_4_0" depart="0" maxspeed="18.06" length="9.21" shape="2070.04,623.60 2066.84,624.08 2065.67,624.86 2066.52,625.95 2069.39,627.35"/>
      </lanes>
   </edge>
   <edge id=":252528002_5" function="internal">
      <lanes>
         <lane id=":252528002_5_0" depart="0" maxspeed="18.06" length="44.92" shape="2070.04,623.60 2059.51,624.10 2045.69,624.52 2032.84,625.01 2025.17,625.70"/>
      </lanes>
   </edge>
   <edge id=":252528002_6" function="internal">
      <lanes>
         <lane id=":252528002_6_0" depart="0" maxspeed="22.22" length="45.89" shape="2070.04,623.60 2060.05,623.60 2047.11,622.60 2034.26,620.84 2024.57,618.56"/>
      </lanes>
   </edge>
   <edge id=":252528002_7" function="internal">
      <lanes>
         <lane id=":252528002_7_0" depart="0" maxspeed="22.22" length="44.88" shape="2069.94,620.30 2060.11,620.31 2047.51,619.36 2035.01,617.65 2025.48,615.38"/>
      </lanes>
   </edge>
   <edge id=":252528002_8" function="internal">
      <lanes>
         <lane id=":252528002_8_0" depart="0" maxspeed="22.22" length="4.82" shape="2069.94,620.30 2068.68,619.51 2068.24,618.70 2068.63,617.86 2069.84,617.00"/>
      </lanes>
   </edge>
   <edge id=":252528002_9" function="internal">
      <lanes>
         <lane id=":252528002_9_0" depart="0" maxspeed="22.22" length="42.85" shape="2027.29,609.03 2036.51,611.26 2048.32,612.88 2060.23,613.75 2069.74,613.70"/>
      </lanes>
   </edge>
   <edge id=":252528002_10" function="internal">
      <lanes>
         <lane id=":252528002_10_0" depart="0" maxspeed="18.06" length="45.59" shape="2026.39,612.21 2036.43,615.70 2049.69,620.32 2062.04,624.66 2069.39,627.35"/>
      </lanes>
   </edge>
   <edge id=":252528002_11" function="internal">
      <lanes>
         <lane id=":252528002_11_0" depart="0" maxspeed="18.06" length="27.91" shape="2026.39,612.21 2034.91,616.05 2037.55,619.59 2034.30,622.80 2025.17,625.70"/>
      </lanes>
   </edge>
   <edge id=":252528002_12" function="internal">
      <lanes>
         <lane id=":252528002_12_0" depart="0" maxspeed="22.22" length="4.82" shape="2026.39,612.21 2027.35,613.34 2027.52,614.25 2026.90,614.93 2025.48,615.38"/>
      </lanes>
   </edge>
   <edge id=":252528002_13" function="internal">
      <lanes>
         <lane id=":252528002_13_0" depart="0" maxspeed="18.06" length="8.10" shape="2024.44,622.48 2027.03,621.65 2027.92,620.72 2027.10,619.69 2024.57,618.56"/>
      </lanes>
   </edge>
   <edge id=":252528002_14" function="internal">
      <lanes>
         <lane id=":252528002_14_0" depart="0" maxspeed="18.06" length="45.74" shape="2024.44,622.48 2032.19,621.27 2045.23,619.61 2059.22,618.02 2069.84,617.00"/>
      </lanes>
   </edge>
   <edge id=":252528002_15" function="internal">
      <lanes>
         <lane id=":252528002_15_0" depart="0" maxspeed="13.89" length="45.30" shape="2024.44,622.48 2032.87,622.52 2047.00,623.81 2061.09,625.65 2069.39,627.35"/>
      </lanes>
   </edge>
   <edge id=":252528002_16" function="internal">
      <lanes>
         <lane id=":252528002_16_0" depart="0" maxspeed="13.89" length="4.82" shape="2024.44,622.48 2025.83,623.01 2026.41,623.73 2026.20,624.62 2025.17,625.70"/>
      </lanes>
   </edge>
   <edge id=":253280166_0" function="internal">
      <lanes>
         <lane id=":253280166_0_0" depart="0" maxspeed="27.78" length="18.37" shape="2446.60,529.53 2444.97,534.73 2443.85,538.29 2442.74,541.85 2441.11,547.06"/>
      </lanes>
   </edge>
   <edge id=":253280166_1" function="internal">
      <lanes>
         <lane id=":253280166_1_0" depart="0" maxspeed="27.78" length="18.37" shape="2443.45,528.54 2441.82,533.74 2440.70,537.30 2439.59,540.87 2437.96,546.07"/>
      </lanes>
   </edge>
   <edge id=":253280166_2" function="internal">
      <lanes>
         <lane id=":253280166_2_0" depart="0" maxspeed="25.00" length="18.71" shape="2443.45,528.54 2441.80,531.29 2438.66,533.75 2434.04,535.93 2427.92,537.82"/>
      </lanes>
   </edge>
   <edge id=":253280166_3" function="internal">
      <lanes>
         <lane id=":253280166_3_0" depart="0" maxspeed="27.78" length="4.82" shape="2443.45,528.54 2442.30,529.47 2441.39,529.62 2440.72,528.98 2440.31,527.55"/>
      </lanes>
   </edge>
   <edge id=":253280166_4" function="internal">
      <lanes>
         <lane id=":253280166_4_0" depart="0" maxspeed="25.00" length="12.12" shape="2426.30,531.42 2430.78,530.15 2434.08,528.91 2436.21,527.72 2437.16,526.56"/>
      </lanes>
   </edge>
   <edge id=":253280166_5" function="internal">
      <lanes>
         <lane id=":253280166_5_0" depart="0" maxspeed="25.00" length="21.85" shape="2427.11,534.62 2433.67,533.84 2437.66,535.49 2439.10,539.57 2437.96,546.07"/>
      </lanes>
   </edge>
   <edge id=":253280166_6" function="internal">
      <lanes>
         <lane id=":253280166_6_0" depart="0" maxspeed="22.22" length="4.82" shape="2427.11,534.62 2428.51,535.11 2429.12,535.81 2428.92,536.71 2427.92,537.82"/>
      </lanes>
   </edge>
   <edge id=":253280166_7" function="internal">
      <lanes>
         <lane id=":253280166_7_0" depart="0" maxspeed="25.00" length="5.89" shape="2431.66,544.10 2431.97,542.35 2431.58,541.25 2430.51,540.80 2428.74,541.01"/>
      </lanes>
   </edge>
   <edge id=":253280166_8" function="internal">
      <lanes>
         <lane id=":253280166_8_0" depart="0" maxspeed="27.78" length="18.39" shape="2431.66,544.10 2433.29,538.89 2434.41,535.33 2435.52,531.77 2437.16,526.56"/>
      </lanes>
   </edge>
   <edge id=":253280166_9" function="internal">
      <lanes>
         <lane id=":253280166_9_0" depart="0" maxspeed="27.78" length="18.38" shape="2434.81,545.09 2436.44,539.88 2437.55,536.32 2438.67,532.75 2440.31,527.55"/>
      </lanes>
   </edge>
   <edge id=":253280166_10" function="internal">
      <lanes>
         <lane id=":253280166_10_0" depart="0" maxspeed="27.78" length="4.82" shape="2434.81,545.09 2435.97,544.15 2436.88,544.01 2437.55,544.65 2437.96,546.07"/>
      </lanes>
   </edge>
   <edge id=":253280170_0" function="internal">
      <lanes>
         <lane id=":253280170_0_0" depart="0" maxspeed="27.78" length="0.24" shape="2318.08,850.72 2317.99,850.94"/>
      </lanes>
   </edge>
   <edge id=":253280170_1" function="internal">
      <lanes>
         <lane id=":253280170_1_0" depart="0" maxspeed="27.78" length="0.74" shape="2315.18,849.16 2314.88,849.84"/>
      </lanes>
   </edge>
   <edge id=":253280170_2" function="internal">
      <lanes>
         <lane id=":253280170_2_0" depart="0" maxspeed="27.78" length="4.82" shape="2315.18,849.16 2313.86,849.86 2312.94,849.83 2312.41,849.08 2312.27,847.60"/>
      </lanes>
   </edge>
   <edge id=":253280170_3" function="internal">
      <lanes>
         <lane id=":253280170_3_0" depart="0" maxspeed="27.78" length="1.75" shape="2308.65,847.63 2309.36,846.04"/>
      </lanes>
   </edge>
   <edge id=":253280170_4" function="internal">
      <lanes>
         <lane id=":253280170_4_0" depart="0" maxspeed="27.78" length="1.24" shape="2311.77,848.73 2312.27,847.60"/>
      </lanes>
   </edge>
   <edge id=":253280170_5" function="internal">
      <lanes>
         <lane id=":253280170_5_0" depart="0" maxspeed="27.78" length="4.82" shape="2311.77,848.73 2312.96,847.84 2313.87,847.73 2314.51,848.40 2314.88,849.84"/>
      </lanes>
   </edge>
   <edge id=":253280171_0" function="internal">
      <lanes>
         <lane id=":253280171_0_0" depart="0" maxspeed="27.78" length="0.16" shape="2260.11,1014.18 2260.06,1014.33"/>
      </lanes>
   </edge>
   <edge id=":253280171_1" function="internal">
      <lanes>
         <lane id=":253280171_1_0" depart="0" maxspeed="27.78" length="0.48" shape="2257.00,1013.08 2256.86,1013.54"/>
      </lanes>
   </edge>
   <edge id=":253280171_2" function="internal">
      <lanes>
         <lane id=":253280171_2_0" depart="0" maxspeed="27.78" length="4.82" shape="2257.00,1013.08 2255.81,1013.97 2254.89,1014.08 2254.25,1013.42 2253.89,1011.98"/>
      </lanes>
   </edge>
   <edge id=":253280171_3" function="internal">
      <lanes>
         <lane id=":253280171_3_0" depart="0" maxspeed="27.78" length="1.12" shape="2250.45,1011.95 2250.78,1010.87"/>
      </lanes>
   </edge>
   <edge id=":253280171_4" function="internal">
      <lanes>
         <lane id=":253280171_4_0" depart="0" maxspeed="27.78" length="0.80" shape="2253.66,1012.74 2253.89,1011.98"/>
      </lanes>
   </edge>
   <edge id=":253280171_5" function="internal">
      <lanes>
         <lane id=":253280171_5_0" depart="0" maxspeed="27.78" length="4.82" shape="2253.66,1012.74 2254.75,1011.74 2255.65,1011.54 2256.36,1012.14 2256.86,1013.54"/>
      </lanes>
   </edge>
   <edge id=":253280178_0" function="internal">
      <lanes>
         <lane id=":253280178_0_0" depart="0" maxspeed="16.67" length="4.97" shape="2229.81,1235.92 2228.49,1235.61 2227.38,1235.79 2226.48,1236.47 2225.78,1237.63"/>
      </lanes>
   </edge>
   <edge id=":253280178_1" function="internal">
      <lanes>
         <lane id=":253280178_1_0" depart="0" maxspeed="16.67" length="12.27" shape="2229.81,1235.92 2226.06,1234.13 2223.51,1232.16 2222.17,1230.00 2222.03,1227.66"/>
      </lanes>
   </edge>
   <edge id=":253280178_2" function="internal">
      <lanes>
         <lane id=":253280178_2_0" depart="0" maxspeed="5.56" length="4.82" shape="2229.81,1235.92 2228.96,1234.70 2228.87,1233.78 2229.56,1233.16 2231.01,1232.84"/>
      </lanes>
   </edge>
   <edge id=":253280178_3" function="internal">
      <lanes>
         <lane id=":253280178_3_0" depart="0" maxspeed="16.67" length="5.14" shape="2228.52,1228.89 2228.47,1230.18 2228.88,1231.27 2229.72,1232.16 2231.01,1232.84"/>
      </lanes>
   </edge>
   <edge id=":253280178_4" function="internal">
      <lanes>
         <lane id=":253280178_4_0" depart="0" maxspeed="27.78" length="9.16" shape="2228.52,1228.89 2225.78,1237.63"/>
      </lanes>
   </edge>
   <edge id=":253280178_5" function="internal">
      <lanes>
         <lane id=":253280178_5_0" depart="0" maxspeed="27.78" length="8.48" shape="2225.27,1228.27 2222.74,1236.36"/>
      </lanes>
   </edge>
   <edge id=":253280178_6" function="internal">
      <lanes>
         <lane id=":253280178_6_0" depart="0" maxspeed="27.78" length="4.82" shape="2225.27,1228.27 2224.23,1229.33 2223.35,1229.59 2222.61,1229.03 2222.03,1227.66"/>
      </lanes>
   </edge>
   <edge id=":253280178_7" function="internal">
      <lanes>
         <lane id=":253280178_7_0" depart="0" maxspeed="27.78" length="7.10" shape="2216.65,1233.81 2218.79,1227.04"/>
      </lanes>
   </edge>
   <edge id=":253280178_8" function="internal">
      <lanes>
         <lane id=":253280178_8_0" depart="0" maxspeed="27.78" length="7.79" shape="2219.69,1235.09 2222.03,1227.66"/>
      </lanes>
   </edge>
   <edge id=":253280178_9" function="internal">
      <lanes>
         <lane id=":253280178_9_0" depart="0" maxspeed="16.67" length="12.92" shape="2219.69,1235.09 2221.30,1232.80 2223.72,1231.67 2226.95,1231.68 2231.01,1232.84"/>
      </lanes>
   </edge>
   <edge id=":253280178_10" function="internal">
      <lanes>
         <lane id=":253280178_10_0" depart="0" maxspeed="27.78" length="4.82" shape="2219.69,1235.09 2220.93,1234.26 2221.85,1234.20 2222.45,1234.90 2222.74,1236.36"/>
      </lanes>
   </edge>
   <edge id=":253280181_0" function="internal">
      <lanes>
         <lane id=":253280181_0_0" depart="0" maxspeed="27.78" length="5.04" shape="1748.62,2562.62 1747.27,2562.30 1746.16,2562.49 1745.28,2563.20 1744.63,2564.43"/>
      </lanes>
   </edge>
   <edge id=":253280181_1" function="internal">
      <lanes>
         <lane id=":253280181_1_0" depart="0" maxspeed="27.78" length="16.40" shape="1749.83,2559.54 1745.30,2557.76 1742.19,2556.56 1739.08,2555.37 1734.52,2553.65"/>
      </lanes>
   </edge>
   <edge id=":253280181_2" function="internal">
      <lanes>
         <lane id=":253280181_2_0" depart="0" maxspeed="27.78" length="3.31" shape="1749.83,2559.54 1748.90,2559.02"/>
      </lanes>
   </edge>
   <edge id=":253280181_18" function="internal">
      <lanes>
         <lane id=":253280181_18_0" depart="0" maxspeed="27.78" length="12.66" shape="1748.90,2559.02 1746.02,2557.39 1743.76,2554.54 1743.07,2550.99 1743.93,2546.74"/>
      </lanes>
   </edge>
   <edge id=":253280181_3" function="internal">
      <lanes>
         <lane id=":253280181_3_0" depart="0" maxspeed="27.78" length="0.10" shape="1749.83,2559.54 1749.04,2558.41"/>
      </lanes>
   </edge>
   <edge id=":253280181_19" function="internal">
      <lanes>
         <lane id=":253280181_19_0" depart="0" maxspeed="27.78" length="4.72" shape="1749.04,2558.41 1748.98,2558.32 1748.90,2557.41 1749.58,2556.79 1751.04,2556.47"/>
      </lanes>
   </edge>
   <edge id=":253280181_4" function="internal">
      <lanes>
         <lane id=":253280181_4_0" depart="0" maxspeed="27.78" length="5.56" shape="1750.15,2548.96 1749.85,2550.43 1750.11,2551.66 1750.90,2552.65 1752.24,2553.40"/>
      </lanes>
   </edge>
   <edge id=":253280181_5" function="internal">
      <lanes>
         <lane id=":253280181_5_0" depart="0" maxspeed="27.78" length="16.42" shape="1750.15,2548.96 1748.51,2553.56 1747.39,2556.70 1746.27,2559.84 1744.63,2564.43"/>
      </lanes>
   </edge>
   <edge id=":253280181_6" function="internal">
      <lanes>
         <lane id=":253280181_6_0" depart="0" maxspeed="27.78" length="16.43" shape="1747.04,2547.85 1745.40,2552.45 1744.28,2555.59 1743.16,2558.73 1741.52,2563.33"/>
      </lanes>
   </edge>
   <edge id=":253280181_7" function="internal">
      <lanes>
         <lane id=":253280181_7_0" depart="0" maxspeed="27.78" length="8.87" shape="1747.04,2547.85 1745.02,2551.69 1739.71,2554.41"/>
      </lanes>
   </edge>
   <edge id=":253280181_20" function="internal">
      <lanes>
         <lane id=":253280181_20_0" depart="0" maxspeed="27.78" length="6.93" shape="1739.71,2554.41 1738.76,2554.59 1734.52,2553.65"/>
      </lanes>
   </edge>
   <edge id=":253280181_8" function="internal">
      <lanes>
         <lane id=":253280181_8_0" depart="0" maxspeed="27.78" length="0.10" shape="1747.04,2547.85 1745.93,2548.68"/>
      </lanes>
   </edge>
   <edge id=":253280181_21" function="internal">
      <lanes>
         <lane id=":253280181_21_0" depart="0" maxspeed="27.78" length="4.72" shape="1745.93,2548.68 1745.85,2548.74 1744.93,2548.85 1744.29,2548.19 1743.93,2546.74"/>
      </lanes>
   </edge>
   <edge id=":253280181_9" function="internal">
      <lanes>
         <lane id=":253280181_9_0" depart="0" maxspeed="27.78" length="5.02" shape="1736.85,2547.48 1738.19,2547.77 1739.30,2547.57 1740.18,2546.85 1740.83,2545.63"/>
      </lanes>
   </edge>
   <edge id=":253280181_10" function="internal">
      <lanes>
         <lane id=":253280181_10_0" depart="0" maxspeed="27.78" length="16.45" shape="1735.68,2550.56 1740.25,2552.29 1743.38,2553.48 1746.49,2554.69 1751.04,2556.47"/>
      </lanes>
   </edge>
   <edge id=":253280181_11" function="internal">
      <lanes>
         <lane id=":253280181_11_0" depart="0" maxspeed="27.78" length="3.22" shape="1735.68,2550.56 1736.66,2551.10"/>
      </lanes>
   </edge>
   <edge id=":253280181_22" function="internal">
      <lanes>
         <lane id=":253280181_22_0" depart="0" maxspeed="27.78" length="12.72" shape="1736.66,2551.10 1739.48,2552.65 1741.72,2555.48 1742.40,2559.03 1741.52,2563.33"/>
      </lanes>
   </edge>
   <edge id=":253280181_12" function="internal">
      <lanes>
         <lane id=":253280181_12_0" depart="0" maxspeed="27.78" length="0.10" shape="1735.68,2550.56 1736.49,2551.69"/>
      </lanes>
   </edge>
   <edge id=":253280181_23" function="internal">
      <lanes>
         <lane id=":253280181_23_0" depart="0" maxspeed="27.78" length="4.72" shape="1736.49,2551.69 1736.55,2551.77 1736.65,2552.69 1735.97,2553.32 1734.52,2553.65"/>
      </lanes>
   </edge>
   <edge id=":253280181_13" function="internal">
      <lanes>
         <lane id=":253280181_13_0" depart="0" maxspeed="27.78" length="5.43" shape="1735.30,2561.11 1735.61,2559.64 1735.39,2558.42 1734.64,2557.45 1733.36,2556.74"/>
      </lanes>
   </edge>
   <edge id=":253280181_14" function="internal">
      <lanes>
         <lane id=":253280181_14_0" depart="0" maxspeed="27.78" length="16.43" shape="1735.30,2561.11 1736.94,2556.52 1738.06,2553.37 1739.18,2550.23 1740.83,2545.63"/>
      </lanes>
   </edge>
   <edge id=":253280181_15" function="internal">
      <lanes>
         <lane id=":253280181_15_0" depart="0" maxspeed="27.78" length="16.43" shape="1738.41,2562.22 1740.05,2557.62 1741.17,2554.48 1742.29,2551.34 1743.93,2546.74"/>
      </lanes>
   </edge>
   <edge id=":253280181_16" function="internal">
      <lanes>
         <lane id=":253280181_16_0" depart="0" maxspeed="27.78" length="8.90" shape="1738.41,2562.22 1740.46,2558.34 1745.85,2555.63"/>
      </lanes>
   </edge>
   <edge id=":253280181_24" function="internal">
      <lanes>
         <lane id=":253280181_24_0" depart="0" maxspeed="27.78" length="7.04" shape="1745.85,2555.63 1746.77,2555.46 1751.04,2556.47"/>
      </lanes>
   </edge>
   <edge id=":253280181_17" function="internal">
      <lanes>
         <lane id=":253280181_17_0" depart="0" maxspeed="27.78" length="0.10" shape="1738.41,2562.22 1739.53,2561.39"/>
      </lanes>
   </edge>
   <edge id=":253280181_25" function="internal">
      <lanes>
         <lane id=":253280181_25_0" depart="0" maxspeed="27.78" length="4.72" shape="1739.53,2561.39 1739.61,2561.33 1740.52,2561.22 1741.16,2561.88 1741.52,2563.33"/>
      </lanes>
   </edge>
   <edge id=":254506367_0" function="internal">
      <lanes>
         <lane id=":254506367_0_0" depart="0" maxspeed="13.89" length="4.82" shape="745.89,1763.74 744.69,1764.61 743.77,1764.71 743.14,1764.04 742.80,1762.59"/>
      </lanes>
   </edge>
   <edge id=":254506369_0" function="internal">
      <lanes>
         <lane id=":254506369_0_0" depart="0" maxspeed="27.78" length="0.22" shape="1208.33,523.79 1208.25,524.00"/>
      </lanes>
   </edge>
   <edge id=":254506369_1" function="internal">
      <lanes>
         <lane id=":254506369_1_0" depart="0" maxspeed="27.78" length="0.11" shape="1205.22,522.69 1205.18,522.79"/>
      </lanes>
   </edge>
   <edge id=":254506369_2" function="internal">
      <lanes>
         <lane id=":254506369_2_0" depart="0" maxspeed="27.78" length="4.82" shape="1205.22,522.69 1204.03,523.58 1203.11,523.69 1202.47,523.03 1202.11,521.58"/>
      </lanes>
   </edge>
   <edge id=":254506369_3" function="internal">
      <lanes>
         <lane id=":254506369_3_0" depart="0" maxspeed="27.78" length="0.11" shape="1199.00,520.48 1199.04,520.38"/>
      </lanes>
   </edge>
   <edge id=":254506369_4" function="internal">
      <lanes>
         <lane id=":254506369_4_0" depart="0" maxspeed="27.78" length="0.10" shape="1202.11,521.58 1202.11,521.58"/>
      </lanes>
   </edge>
   <edge id=":254506369_5" function="internal">
      <lanes>
         <lane id=":254506369_5_0" depart="0" maxspeed="27.78" length="4.82" shape="1202.11,521.58 1203.33,520.73 1204.25,520.65 1204.87,521.34 1205.18,522.79"/>
      </lanes>
   </edge>
   <edge id=":254506371_0" function="internal">
      <lanes>
         <lane id=":254506371_0_0" depart="0" maxspeed="25.00" length="5.00" shape="1278.71,343.20 1277.37,342.91 1276.26,343.12 1275.38,343.83 1274.73,345.04"/>
      </lanes>
   </edge>
   <edge id=":254506371_1" function="internal">
      <lanes>
         <lane id=":254506371_1_0" depart="0" maxspeed="22.22" length="16.15" shape="1279.86,340.10 1275.36,338.44 1272.28,337.31 1269.20,336.19 1264.69,334.56"/>
      </lanes>
   </edge>
   <edge id=":254506371_2" function="internal">
      <lanes>
         <lane id=":254506371_2_0" depart="0" maxspeed="25.00" length="3.16" shape="1279.86,340.10 1278.85,339.56"/>
      </lanes>
   </edge>
   <edge id=":254506371_18" function="internal">
      <lanes>
         <lane id=":254506371_18_0" depart="0" maxspeed="25.00" length="12.55" shape="1278.85,339.56 1276.08,338.06 1273.84,335.29 1273.15,331.80 1274.01,327.59"/>
      </lanes>
   </edge>
   <edge id=":254506371_3" function="internal">
      <lanes>
         <lane id=":254506371_3_0" depart="0" maxspeed="22.22" length="0.10" shape="1279.86,340.10 1279.04,338.98"/>
      </lanes>
   </edge>
   <edge id=":254506371_19" function="internal">
      <lanes>
         <lane id=":254506371_19_0" depart="0" maxspeed="22.22" length="4.72" shape="1279.04,338.98 1278.98,338.90 1278.88,337.98 1279.55,337.35 1281.00,337.01"/>
      </lanes>
   </edge>
   <edge id=":254506371_4" function="internal">
      <lanes>
         <lane id=":254506371_4_0" depart="0" maxspeed="25.00" length="5.15" shape="1280.23,329.82 1279.95,331.19 1280.17,332.34 1280.91,333.24 1282.14,333.91"/>
      </lanes>
   </edge>
   <edge id=":254506371_5" function="internal">
      <lanes>
         <lane id=":254506371_5_0" depart="0" maxspeed="27.78" length="16.19" shape="1280.23,329.82 1278.61,334.34 1277.50,337.43 1276.38,340.53 1274.73,345.04"/>
      </lanes>
   </edge>
   <edge id=":254506371_6" function="internal">
      <lanes>
         <lane id=":254506371_6_0" depart="0" maxspeed="27.78" length="16.17" shape="1277.12,328.70 1275.51,333.22 1274.40,336.31 1273.28,339.40 1271.63,343.91"/>
      </lanes>
   </edge>
   <edge id=":254506371_7" function="internal">
      <lanes>
         <lane id=":254506371_7_0" depart="0" maxspeed="25.00" length="8.86" shape="1277.12,328.70 1275.12,332.51 1269.90,335.24"/>
      </lanes>
   </edge>
   <edge id=":254506371_20" function="internal">
      <lanes>
         <lane id=":254506371_20_0" depart="0" maxspeed="25.00" length="6.83" shape="1269.90,335.24 1268.90,335.43 1264.69,334.56"/>
      </lanes>
   </edge>
   <edge id=":254506371_8" function="internal">
      <lanes>
         <lane id=":254506371_8_0" depart="0" maxspeed="27.78" length="0.10" shape="1277.12,328.70 1276.01,329.53"/>
      </lanes>
   </edge>
   <edge id=":254506371_21" function="internal">
      <lanes>
         <lane id=":254506371_21_0" depart="0" maxspeed="27.78" length="4.72" shape="1276.01,329.53 1275.93,329.59 1275.01,329.70 1274.38,329.04 1274.01,327.59"/>
      </lanes>
   </edge>
   <edge id=":254506371_9" function="internal">
      <lanes>
         <lane id=":254506371_9_0" depart="0" maxspeed="25.00" length="5.00" shape="1266.94,328.35 1268.28,328.63 1269.39,328.41 1270.27,327.70 1270.91,326.48"/>
      </lanes>
   </edge>
   <edge id=":254506371_10" function="internal">
      <lanes>
         <lane id=":254506371_10_0" depart="0" maxspeed="22.22" length="16.17" shape="1265.82,331.45 1270.33,333.09 1273.42,334.21 1276.50,335.35 1281.00,337.01"/>
      </lanes>
   </edge>
   <edge id=":254506371_11" function="internal">
      <lanes>
         <lane id=":254506371_11_0" depart="0" maxspeed="25.00" length="3.15" shape="1265.82,331.45 1266.83,331.99"/>
      </lanes>
   </edge>
   <edge id=":254506371_22" function="internal">
      <lanes>
         <lane id=":254506371_22_0" depart="0" maxspeed="25.00" length="12.54" shape="1266.83,331.99 1269.61,333.47 1271.85,336.22 1272.52,339.70 1271.63,343.91"/>
      </lanes>
   </edge>
   <edge id=":254506371_12" function="internal">
      <lanes>
         <lane id=":254506371_12_0" depart="0" maxspeed="22.22" length="0.10" shape="1265.82,331.45 1266.64,332.57"/>
      </lanes>
   </edge>
   <edge id=":254506371_23" function="internal">
      <lanes>
         <lane id=":254506371_23_0" depart="0" maxspeed="22.22" length="4.72" shape="1266.64,332.57 1266.70,332.65 1266.81,333.57 1266.14,334.20 1264.69,334.56"/>
      </lanes>
   </edge>
   <edge id=":254506371_13" function="internal">
      <lanes>
         <lane id=":254506371_13_0" depart="0" maxspeed="25.00" length="5.03" shape="1265.43,341.65 1265.72,340.30 1265.50,339.19 1264.79,338.31 1263.57,337.66"/>
      </lanes>
   </edge>
   <edge id=":254506371_14" function="internal">
      <lanes>
         <lane id=":254506371_14_0" depart="0" maxspeed="27.78" length="16.13" shape="1265.43,341.65 1267.07,337.15 1268.19,334.07 1269.30,330.99 1270.91,326.48"/>
      </lanes>
   </edge>
   <edge id=":254506371_15" function="internal">
      <lanes>
         <lane id=":254506371_15_0" depart="0" maxspeed="27.78" length="16.15" shape="1268.53,342.78 1270.17,338.28 1271.29,335.19 1272.40,332.11 1274.01,327.59"/>
      </lanes>
   </edge>
   <edge id=":254506371_16" function="internal">
      <lanes>
         <lane id=":254506371_16_0" depart="0" maxspeed="25.00" length="8.84" shape="1268.53,342.78 1270.56,338.99 1275.81,336.29"/>
      </lanes>
   </edge>
   <edge id=":254506371_24" function="internal">
      <lanes>
         <lane id=":254506371_24_0" depart="0" maxspeed="25.00" length="6.84" shape="1275.81,336.29 1276.80,336.10 1281.00,337.01"/>
      </lanes>
   </edge>
   <edge id=":254506371_17" function="internal">
      <lanes>
         <lane id=":254506371_17_0" depart="0" maxspeed="27.78" length="0.10" shape="1268.53,342.78 1269.65,341.96"/>
      </lanes>
   </edge>
   <edge id=":254506371_25" function="internal">
      <lanes>
         <lane id=":254506371_25_0" depart="0" maxspeed="27.78" length="4.72" shape="1269.65,341.96 1269.73,341.90 1270.65,341.80 1271.28,342.47 1271.63,343.91"/>
      </lanes>
   </edge>
   <edge id=":258961689_0" function="internal">
      <lanes>
         <lane id=":258961689_0_0" depart="0" maxspeed="20.83" length="5.00" shape="1082.78,868.02 1081.44,867.72 1080.33,867.93 1079.45,868.63 1078.79,869.84"/>
      </lanes>
   </edge>
   <edge id=":258961689_1" function="internal">
      <lanes>
         <lane id=":258961689_1_0" depart="0" maxspeed="13.89" length="16.10" shape="1082.78,868.02 1079.10,866.65 1075.24,865.20 1071.37,863.76 1067.69,862.40"/>
      </lanes>
   </edge>
   <edge id=":258961689_2" function="internal">
      <lanes>
         <lane id=":258961689_2_0" depart="0" maxspeed="20.83" length="3.12" shape="1082.78,868.02 1081.75,867.52"/>
      </lanes>
   </edge>
   <edge id=":258961689_18" function="internal">
      <lanes>
         <lane id=":258961689_18_0" depart="0" maxspeed="20.83" length="9.98" shape="1081.75,867.52 1078.94,866.16 1076.52,863.97 1075.51,861.47 1075.92,858.63"/>
      </lanes>
   </edge>
   <edge id=":258961689_3" function="internal">
      <lanes>
         <lane id=":258961689_3_0" depart="0" maxspeed="13.89" length="0.10" shape="1082.78,868.02 1081.97,866.89"/>
      </lanes>
   </edge>
   <edge id=":258961689_19" function="internal">
      <lanes>
         <lane id=":258961689_19_0" depart="0" maxspeed="13.89" length="4.72" shape="1081.97,866.89 1081.91,866.81 1081.81,865.89 1082.49,865.26 1083.93,864.92"/>
      </lanes>
   </edge>
   <edge id=":258961689_4" function="internal">
      <lanes>
         <lane id=":258961689_4_0" depart="0" maxspeed="20.83" length="5.00" shape="1082.11,860.93 1081.82,862.27 1082.02,863.38 1082.73,864.27 1083.93,864.92"/>
      </lanes>
   </edge>
   <edge id=":258961689_5" function="internal">
      <lanes>
         <lane id=":258961689_5_0" depart="0" maxspeed="27.78" length="9.50" shape="1082.11,860.93 1078.79,869.84"/>
      </lanes>
   </edge>
   <edge id=":258961689_6" function="internal">
      <lanes>
         <lane id=":258961689_6_0" depart="0" maxspeed="27.78" length="9.50" shape="1079.01,859.78 1075.70,868.69"/>
      </lanes>
   </edge>
   <edge id=":258961689_7" function="internal">
      <lanes>
         <lane id=":258961689_7_0" depart="0" maxspeed="20.83" length="6.51" shape="1079.01,859.78 1077.47,862.19 1072.75,863.48"/>
      </lanes>
   </edge>
   <edge id=":258961689_20" function="internal">
      <lanes>
         <lane id=":258961689_20_0" depart="0" maxspeed="20.83" length="6.58" shape="1072.75,863.48 1071.81,863.50 1067.69,862.40"/>
      </lanes>
   </edge>
   <edge id=":258961689_8" function="internal">
      <lanes>