<?xml version="1.0"?>

<!-- generated on 03/24/11 10:31:55 by SUMO duarouter Version 0.12.2
<?xml version="1.0" encoding="iso-8859-1"?>

<configuration xmlns:xsi="http://www.w3.org/2001/XMLSchema-instance" xsi:noNamespaceSchemaLocation="http://sumo.sf.net/xsd/duarouterConfiguration.xsd">

    <input>
        <net-file value="small.net.xml"/>
        <trip-defs value="trips.trips.xml"/>
    </input>

    <output>
        <output-file value="small.rou.xml"/>
    </output>

</configuration>
-->

<routes>
    <vehicle id="t0" depart="0.00">
        <route edges="C1C2 C2B2 B2A2 A2A1 A1A0 A0B0"/>
    </vehicle>
    <vehicle id="t1" depart="2.00">
        <route edges="C0B0"/>
    </vehicle>
    <vehicle id="t2" depart="4.00">
        <route edges="C0B0 B0A0 A0B0"/>
    </vehicle>
    <vehicle id="t3" depart="6.00">
        <route edges="A1A2 A2B2 B2A2"/>
    </vehicle>
    <vehicle id="t4" depart="8.00">
        <route edges="A1A0 A0B0 B0A0"/>
    </vehicle>
    <vehicle id="t5" depart="10.00">
        <route edges="B2C2 C2B2 B2B1 B1C1"/>
    </vehicle>
    <vehicle id="t6" depart="12.00">
        <route edges="A1A0 A0A1 A1B1 B1A1"/>
    </vehicle>
    <vehicle id="t7" depart="14.00">
        <route edges="B2C2 C2B2 B2A2 A2A1 A1A0"/>
    </vehicle>
    <vehicle id="t8" depart="16.00">
        <route edges="C0C1 C1C2 C2B2 B2B1"/>
    </vehicle>
    <vehicle id="t9" depart="18.00">
        <route edges="A1A0 A0B0 B0C0"/>
    </vehicle>
    <vehicle id="t10" depart="20.00">
        <route edges="C2B2 B2C2 C2C1 C1C2"/>
    </vehicle>
    <vehicle id="t11" depart="22.00">
        <route edges="A2A1 A1B1"/>
    </vehicle>
    <vehicle id="t12" depart="24.00">
        <route edges="B1B0 B0B1 B1B2 B2A2"/>
    </vehicle>
    <vehicle id="t13" depart="26.00">
        <route edges="C2C1 C1C2"/>
    </vehicle>
    <vehicle id="t14" depart="28.00">
        <route edges="B0C0 C0C1"/>
    </vehicle>
    <vehicle id="t15" depart="30.00">
        <route edges="C2B2 B2C2 C2C1 C1C0 C0C1"/>
    </vehicle>
    <vehicle id="t16" depart="32.00">
        <route edges="B2C2 C2B2 B2A2 A2B2"/>
    </vehicle>
    <vehicle id="t17" depart="34.00">
        <route edges="A1A2 A2A1 A1A0 A0B0 B0C0 C0C1"/>
    </vehicle>
    <vehicle id="t18" depart="36.00">
        <route edges="A0B0 B0A0 A0A1 A1A0"/>
    </vehicle>
    <vehicle id="t19" depart="38.00">
        <route edges="C1C0 C0C1 C1C2 C2C1"/>
    </vehicle>
    <vehicle id="t20" depart="40.00">
        <route edges="B2A2 A2A1 A1A0"/>
    </vehicle>
    <vehicle id="t21" depart="42.00">
        <route edges="B2B1 B1A1 A1A0 A0A1"/>
    </vehicle>
    <vehicle id="t22" depart="44.00">
        <route edges="B0A0 A0A1 A1A2 A2B2 B2C2 C2B2"/>
    </vehicle>
    <vehicle id="t23" depart="46.00">
        <route edges="B2A2 A2B2"/>
    </vehicle>
    <vehicle id="t24" depart="48.00">
        <route edges="C0B0 B0A0 A0A1 A1A0"/>
    </vehicle>
    <vehicle id="t25" depart="50.00">
        <route edges="A0A1 A1A2"/>
    </vehicle>
    <vehicle id="t26" depart="52.00">
        <route edges="B2B1 B1A1 A1A0 A0B0"/>
    </vehicle>
    <vehicle id="t27" depart="54.00">
        <route edges="A1B1 B1B2 B2C2 C2B2"/>
    </vehicle>
    <vehicle id="t28" depart="56.00">
        <route edges="B1C1 C1C2 C2B2 B2A2"/>
    </vehicle>
    <vehicle id="t29" depart="58.00">
        <route edges="A0B0 B0C0 C0C1"/>
    </vehicle>
    <vehicle id="t30" depart="60.00">
        <route edges="A2A1 A1B1"/>
    </vehicle>
    <vehicle id="t31" depart="62.00">
        <route edges="C1C2 C2B2 B2B1 B1C1"/>
    </vehicle>
    <vehicle id="t32" depart="64.00">
        <route edges="A2B2 B2A2"/>
    </vehicle>
    <vehicle id="t33" depart="66.00">
        <route edges="B2B1 B1B0 B0C0 C0C1"/>
    </vehicle>
    <vehicle id="t34" depart="68.00">
        <route edges="C1C0 C0C1 C1C2 C2B2"/>
    </vehicle>
    <vehicle id="t35" depart="70.00">
        <route edges="A1A0 A0B0 B0C0 C0B0"/>
    </vehicle>
    <vehicle id="t36" depart="72.00">
        <route edges="C2B2 B2A2"/>
    </vehicle>
    <vehicle id="t37" depart="74.00">
        <route edges="C2C1 C1C0 C0B0"/>
    </vehicle>
    <vehicle id="t38" depart="76.00">
        <route edges="C0B0 B0C0 C0C1"/>
    </vehicle>
    <vehicle id="t39" depart="78.00">
        <route edges="B0A0 A0A1 A1A2 A2B2"/>
    </vehicle>
</routes>
